--------------------------------------------------------------------------
WARNING: Linux kernel CMA support was requested via the
btl_vader_single_copy_mechanism MCA variable, but CMA support is
not available due to restrictive ptrace settings.

The vader shared memory BTL will fall back on another single-copy
mechanism if one is available. This may result in lower performance.

  Local host: ZCP
--------------------------------------------------------------------------
/*---------------------------------------------------------------------------*\
  =========                 |
  \\      /  F ield         | OpenFOAM: The Open Source CFD Toolbox
   \\    /   O peration     | Website:  https://openfoam.org
    \\  /    A nd           | Version:  7
     \\/     M anipulation  |
\*---------------------------------------------------------------------------*/
Build  : 7-ca808c8420bf
Exec   : simpleFoam -parallel
Date   : Dec 19 2019
Time   : 00:27:49
Host   : "ZCP"
PID    : 3540
I/O    : uncollated
Case   : /home/zcp/OpenFOAM/zcp-7/run/airfoil_opt/cases/airfoil_run
nProcs : 4
Slaves : 
3
(
"ZCP.3541"
"ZCP.3542"
"ZCP.3543"
)

Pstream initialized with:
    floatTransfer      : 0
    nProcsSimpleSum    : 0
    commsType          : nonBlocking
    polling iterations : 0
sigFpe : Enabling floating point exception trapping (FOAM_SIGFPE).
fileModificationChecking : Monitoring run-time modified files using timeStampMaster (fileModificationSkew 10)
allowSystemOperations : Allowing user-supplied system call operations

// * * * * * * * * * * * * * * * * * * * * * * * * * * * * * * * * * * * * * //
Create time

Create mesh for time = 0


SIMPLE: Convergence criteria found
        p: tolerance 1e-06
        U: tolerance 1e-06
        nuTilda: tolerance 1e-06

Reading field p

Reading field U

Reading/calculating face flux field phi

Selecting incompressible transport model Newtonian
Selecting turbulence model type RAS
Selecting RAS turbulence model SpalartAllmaras
Selecting patchDistMethod meshWave
RAS
{
    RASModel        SpalartAllmaras;
    turbulence      on;
    printCoeffs     on;
    sigmaNut        0.66666;
    kappa           0.41;
    Cb1             0.1355;
    Cb2             0.622;
    Cw2             0.3;
    Cw3             2;
    Cv1             7.1;
    Cs              0.3;
}

No MRF models present

No finite volume options present

Starting time loop

forces forceCoeffs:
    Not including porosity effects
forceCoeffs forceCoeffs:
    Not including porosity effects
Time = 1

smoothSolver:  Solving for Ux, Initial residual = 1, Final residual = 0.00527484, No Iterations 14
smoothSolver:  Solving for Uy, Initial residual = 1, Final residual = 0.00527474, No Iterations 14
DICPBiCGStab:  Solving for p, Initial residual = 1, Final residual = 0.00881955, No Iterations 99
DICPBiCGStab:  Solving for p, Initial residual = 0.00147737, Final residual = 9.6472e-06, No Iterations 97
DICPBiCGStab:  Solving for p, Initial residual = 0.000251762, Final residual = 9.13545e-06, No Iterations 102
time step continuity errors : sum local = 0.000132001, global = -5.4748e-05, cumulative = -5.4748e-05
smoothSolver:  Solving for nuTilda, Initial residual = 1, Final residual = 0.00816681, No Iterations 6
ExecutionTime = 0.55 s  ClockTime = 1 s

forceCoeffs forceCoeffs write:
    Cm    = 6.03902
    Cd    = 10.4831
    Cl    = 26.886
    Cl(f) = 19.482
    Cl(r) = 7.40398

Time = 2

smoothSolver:  Solving for Ux, Initial residual = 0.0887306, Final residual = 0.000778208, No Iterations 10
smoothSolver:  Solving for Uy, Initial residual = 0.168856, Final residual = 0.000957798, No Iterations 12
DICPBiCGStab:  Solving for p, Initial residual = 0.185786, Final residual = 0.00184644, No Iterations 49
DICPBiCGStab:  Solving for p, Initial residual = 0.0222036, Final residual = 0.000192221, No Iterations 144
DICPBiCGStab:  Solving for p, Initial residual = 0.00400352, Final residual = 3.88872e-05, No Iterations 109
time step continuity errors : sum local = 0.000118449, global = 7.35725e-05, cumulative = 1.88245e-05
smoothSolver:  Solving for nuTilda, Initial residual = 0.0481156, Final residual = 0.000144334, No Iterations 6
ExecutionTime = 0.93 s  ClockTime = 1 s

forceCoeffs forceCoeffs write:
    Cm    = 2.82841
    Cd    = 4.91864
    Cl    = 14.0173
    Cl(f) = 9.83709
    Cl(r) = 4.18026

Time = 3

smoothSolver:  Solving for Ux, Initial residual = 0.0241112, Final residual = 0.000193631, No Iterations 10
smoothSolver:  Solving for Uy, Initial residual = 0.0171185, Final residual = 8.65964e-05, No Iterations 12
DICPBiCGStab:  Solving for p, Initial residual = 0.204652, Final residual = 0.00200486, No Iterations 64
DICPBiCGStab:  Solving for p, Initial residual = 0.00371948, Final residual = 3.04532e-05, No Iterations 113
DICPBiCGStab:  Solving for p, Initial residual = 0.00104767, Final residual = 7.1763e-06, No Iterations 134
time step continuity errors : sum local = 7.75196e-05, global = -4.19453e-05, cumulative = -2.31208e-05
smoothSolver:  Solving for nuTilda, Initial residual = 0.0306671, Final residual = 9.23545e-05, No Iterations 6
ExecutionTime = 1.28 s  ClockTime = 1 s

forceCoeffs forceCoeffs write:
    Cm    = -2.32825
    Cd    = -3.73055
    Cl    = -8.23978
    Cl(f) = -6.44814
    Cl(r) = -1.79164

Time = 4

smoothSolver:  Solving for Ux, Initial residual = 0.00962461, Final residual = 8.32565e-05, No Iterations 10
smoothSolver:  Solving for Uy, Initial residual = 0.00913928, Final residual = 5.15002e-05, No Iterations 12
DICPBiCGStab:  Solving for p, Initial residual = 0.135634, Final residual = 0.00130936, No Iterations 62
DICPBiCGStab:  Solving for p, Initial residual = 0.00340787, Final residual = 3.06492e-05, No Iterations 99
DICPBiCGStab:  Solving for p, Initial residual = 0.000772468, Final residual = 9.92463e-06, No Iterations 70
time step continuity errors : sum local = 6.3853e-05, global = 5.91295e-05, cumulative = 3.60087e-05
smoothSolver:  Solving for nuTilda, Initial residual = 0.0206081, Final residual = 0.00013325, No Iterations 6
ExecutionTime = 1.58 s  ClockTime = 2 s

forceCoeffs forceCoeffs write:
    Cm    = -3.43584
    Cd    = -6.43043
    Cl    = -15.0627
    Cl(f) = -10.9672
    Cl(r) = -4.0955

Time = 5

smoothSolver:  Solving for Ux, Initial residual = 0.0354621, Final residual = 0.000316914, No Iterations 10
smoothSolver:  Solving for Uy, Initial residual = 0.0480408, Final residual = 0.000259533, No Iterations 12
DICPBiCGStab:  Solving for p, Initial residual = 0.112662, Final residual = 0.00104482, No Iterations 63
DICPBiCGStab:  Solving for p, Initial residual = 0.00857655, Final residual = 5.4703e-05, No Iterations 113
DICPBiCGStab:  Solving for p, Initial residual = 0.0027464, Final residual = 2.45588e-05, No Iterations 86
time step continuity errors : sum local = 7.86001e-05, global = -7.19154e-05, cumulative = -3.59066e-05
smoothSolver:  Solving for nuTilda, Initial residual = 0.0125832, Final residual = 3.60621e-05, No Iterations 8
ExecutionTime = 1.9 s  ClockTime = 2 s

forceCoeffs forceCoeffs write:
    Cm    = -0.602564
    Cd    = -2.17568
    Cl    = -4.54195
    Cl(f) = -2.87354
    Cl(r) = -1.66841

Time = 6

smoothSolver:  Solving for Ux, Initial residual = 0.0269037, Final residual = 0.000235627, No Iterations 10
smoothSolver:  Solving for Uy, Initial residual = 0.0976206, Final residual = 0.000460444, No Iterations 12
DICPBiCGStab:  Solving for p, Initial residual = 0.218939, Final residual = 0.00188368, No Iterations 65
DICPBiCGStab:  Solving for p, Initial residual = 0.00492327, Final residual = 3.56536e-05, No Iterations 111
DICPBiCGStab:  Solving for p, Initial residual = 0.00126085, Final residual = 1.19334e-05, No Iterations 136
time step continuity errors : sum local = 8.07567e-05, global = -4.80978e-05, cumulative = -8.40044e-05
smoothSolver:  Solving for nuTilda, Initial residual = 0.01125, Final residual = 3.75936e-05, No Iterations 8
ExecutionTime = 2.26 s  ClockTime = 2 s

forceCoeffs forceCoeffs write:
    Cm    = 1.96619
    Cd    = 2.94173
    Cl    = 7.40395
    Cl(f) = 5.66817
    Cl(r) = 1.73578

Time = 7

smoothSolver:  Solving for Ux, Initial residual = 0.0247275, Final residual = 0.000197082, No Iterations 10
smoothSolver:  Solving for Uy, Initial residual = 0.161512, Final residual = 0.000926061, No Iterations 12
DICPBiCGStab:  Solving for p, Initial residual = 0.136782, Final residual = 0.00120237, No Iterations 49
DICPBiCGStab:  Solving for p, Initial residual = 0.00812762, Final residual = 6.92067e-05, No Iterations 92
DICPBiCGStab:  Solving for p, Initial residual = 0.00201018, Final residual = 1.74159e-05, No Iterations 75
time step continuity errors : sum local = 5.06722e-05, global = -3.51922e-05, cumulative = -0.000119197
smoothSolver:  Solving for nuTilda, Initial residual = 0.00920118, Final residual = 3.76635e-05, No Iterations 8
ExecutionTime = 2.56 s  ClockTime = 3 s

forceCoeffs forceCoeffs write:
    Cm    = 1.86616
    Cd    = 4.27703
    Cl    = 9.06857
    Cl(f) = 6.40045
    Cl(r) = 2.66813

Time = 8

smoothSolver:  Solving for Ux, Initial residual = 0.0257883, Final residual = 0.000195716, No Iterations 10
smoothSolver:  Solving for Uy, Initial residual = 0.0364522, Final residual = 0.000190325, No Iterations 12
DICPBiCGStab:  Solving for p, Initial residual = 0.125058, Final residual = 0.0010923, No Iterations 65
DICPBiCGStab:  Solving for p, Initial residual = 0.010195, Final residual = 9.68017e-05, No Iterations 109
DICPBiCGStab:  Solving for p, Initial residual = 0.00341749, Final residual = 2.96826e-05, No Iterations 84
time step continuity errors : sum local = 8.00335e-05, global = 7.75554e-05, cumulative = -4.16412e-05
smoothSolver:  Solving for nuTilda, Initial residual = 0.0074463, Final residual = 3.59055e-05, No Iterations 8
bounding nuTilda, min: -8.27507e-06 max: 0.00884586 average: 9.41616e-05
ExecutionTime = 2.87 s  ClockTime = 3 s

forceCoeffs forceCoeffs write:
    Cm    = -0.183456
    Cd    = 2.5467
    Cl    = 2.12561
    Cl(f) = 0.879348
    Cl(r) = 1.24626

Time = 9

smoothSolver:  Solving for Ux, Initial residual = 0.0105038, Final residual = 7.03087e-05, No Iterations 10
smoothSolver:  Solving for Uy, Initial residual = 0.00930372, Final residual = 4.22321e-05, No Iterations 12
DICPBiCGStab:  Solving for p, Initial residual = 0.366241, Final residual = 0.00338934, No Iterations 66
DICPBiCGStab:  Solving for p, Initial residual = 0.00626584, Final residual = 3.34572e-05, No Iterations 114
DICPBiCGStab:  Solving for p, Initial residual = 0.00185301, Final residual = 1.03674e-05, No Iterations 96
time step continuity errors : sum local = 4.5433e-05, global = 3.76196e-05, cumulative = -4.02156e-06
smoothSolver:  Solving for nuTilda, Initial residual = 0.00607432, Final residual = 3.39866e-05, No Iterations 8
bounding nuTilda, min: -1.64079e-05 max: 0.00937853 average: 0.000102427
ExecutionTime = 3.22 s  ClockTime = 3 s

forceCoeffs forceCoeffs write:
    Cm    = -1.40653
    Cd    = -1.1401
    Cl    = -4.15443
    Cl(f) = -3.48374
    Cl(r) = -0.67069

Time = 10

smoothSolver:  Solving for Ux, Initial residual = 0.00968379, Final residual = 7.97573e-05, No Iterations 10
smoothSolver:  Solving for Uy, Initial residual = 0.0117019, Final residual = 6.31106e-05, No Iterations 12
DICPBiCGStab:  Solving for p, Initial residual = 0.147347, Final residual = 0.00135309, No Iterations 31
DICPBiCGStab:  Solving for p, Initial residual = 0.0108649, Final residual = 7.23996e-05, No Iterations 95
DICPBiCGStab:  Solving for p, Initial residual = 0.00331149, Final residual = 3.30335e-05, No Iterations 59
time step continuity errors : sum local = 6.29737e-05, global = 2.02044e-05, cumulative = 1.61829e-05
smoothSolver:  Solving for nuTilda, Initial residual = 0.00520184, Final residual = 3.19816e-05, No Iterations 8
bounding nuTilda, min: -1.2929e-05 max: 0.00990029 average: 0.000110474
ExecutionTime = 3.49 s  ClockTime = 4 s

forceCoeffs forceCoeffs write:
    Cm    = -0.771255
    Cd    = -3.35492
    Cl    = -3.80919
    Cl(f) = -2.67585
    Cl(r) = -1.13334

Time = 11

smoothSolver:  Solving for Ux, Initial residual = 0.0114427, Final residual = 0.000107452, No Iterations 10
smoothSolver:  Solving for Uy, Initial residual = 0.0198293, Final residual = 9.83169e-05, No Iterations 12
DICPBiCGStab:  Solving for p, Initial residual = 0.128928, Final residual = 0.000550436, No Iterations 103
DICPBiCGStab:  Solving for p, Initial residual = 0.00938006, Final residual = 3.66504e-05, No Iterations 102
DICPBiCGStab:  Solving for p, Initial residual = 0.00346857, Final residual = 3.35443e-05, No Iterations 99
time step continuity errors : sum local = 6.4572e-05, global = -4.67863e-05, cumulative = -3.06034e-05
smoothSolver:  Solving for nuTilda, Initial residual = 0.00464916, Final residual = 2.94332e-05, No Iterations 8
bounding nuTilda, min: -6.71971e-06 max: 0.0103322 average: 0.000118368
ExecutionTime = 3.85 s  ClockTime = 4 s

forceCoeffs forceCoeffs write:
    Cm    = 0.513504
    Cd    = -2.07417
    Cl    = 0.663411
    Cl(f) = 0.845209
    Cl(r) = -0.181798

Time = 12

smoothSolver:  Solving for Ux, Initial residual = 0.00904061, Final residual = 8.605e-05, No Iterations 10
smoothSolver:  Solving for Uy, Initial residual = 0.0181624, Final residual = 9.0053e-05, No Iterations 12
DICPBiCGStab:  Solving for p, Initial residual = 0.32965, Final residual = 0.00225611, No Iterations 85
DICPBiCGStab:  Solving for p, Initial residual = 0.00985198, Final residual = 9.80591e-05, No Iterations 44
DICPBiCGStab:  Solving for p, Initial residual = 0.00318706, Final residual = 3.1302e-05, No Iterations 77
time step continuity errors : sum local = 6.92238e-05, global = -4.55684e-05, cumulative = -7.61718e-05
smoothSolver:  Solving for nuTilda, Initial residual = 0.00427842, Final residual = 2.71278e-05, No Iterations 8
bounding nuTilda, min: -1.15688e-05 max: 0.010716 average: 0.000126217
ExecutionTime = 4.13 s  ClockTime = 4 s

forceCoeffs forceCoeffs write:
    Cm    = 0.941434
    Cd    = 0.666513
    Cl    = 3.58747
    Cl(f) = 2.73517
    Cl(r) = 0.852299

Time = 13

smoothSolver:  Solving for Ux, Initial residual = 0.010719, Final residual = 8.79283e-05, No Iterations 10
smoothSolver:  Solving for Uy, Initial residual = 0.0219253, Final residual = 0.000118934, No Iterations 12
DICPBiCGStab:  Solving for p, Initial residual = 0.253143, Final residual = 0.00221295, No Iterations 41
DICPBiCGStab:  Solving for p, Initial residual = 0.0267853, Final residual = 0.000229959, No Iterations 67
DICPBiCGStab:  Solving for p, Initial residual = 0.0126013, Final residual = 7.86149e-05, No Iterations 110
time step continuity errors : sum local = 4.40499e-05, global = -1.40917e-05, cumulative = -9.02635e-05
smoothSolver:  Solving for nuTilda, Initial residual = 0.00396529, Final residual = 2.51955e-05, No Iterations 8
bounding nuTilda, min: -2.70728e-05 max: 0.0110946 average: 0.000133981
ExecutionTime = 4.41 s  ClockTime = 5 s

forceCoeffs forceCoeffs write:
    Cm    = 0.361043
    Cd    = 1.79525
    Cl    = 2.72415
    Cl(f) = 1.72312
    Cl(r) = 1.00103

Time = 14

smoothSolver:  Solving for Ux, Initial residual = 0.00908732, Final residual = 6.52335e-05, No Iterations 10
smoothSolver:  Solving for Uy, Initial residual = 0.0129091, Final residual = 5.87366e-05, No Iterations 12
DICPBiCGStab:  Solving for p, Initial residual = 0.289519, Final residual = 0.00232259, No Iterations 64
DICPBiCGStab:  Solving for p, Initial residual = 0.0198015, Final residual = 0.000160413, No Iterations 126
DICPBiCGStab:  Solving for p, Initial residual = 0.00441308, Final residual = 4.1037e-05, No Iterations 80
time step continuity errors : sum local = 6.19918e-05, global = -7.39004e-06, cumulative = -9.76535e-05
smoothSolver:  Solving for nuTilda, Initial residual = 0.00360223, Final residual = 2.36084e-05, No Iterations 8
bounding nuTilda, min: -1.23259e-05 max: 0.0113902 average: 0.000141696
ExecutionTime = 4.76 s  ClockTime = 5 s

forceCoeffs forceCoeffs write:
    Cm    = -0.387614
    Cd    = 1.01502
    Cl    = 0.160051
    Cl(f) = -0.307589
    Cl(r) = 0.46764

Time = 15

smoothSolver:  Solving for Ux, Initial residual = 0.00501586, Final residual = 3.27004e-05, No Iterations 10
smoothSolver:  Solving for Uy, Initial residual = 0.00704958, Final residual = 6.48215e-05, No Iterations 10
DICPBiCGStab:  Solving for p, Initial residual = 0.405862, Final residual = 0.00405443, No Iterations 47
DICPBiCGStab:  Solving for p, Initial residual = 0.0157963, Final residual = 0.000152536, No Iterations 64
DICPBiCGStab:  Solving for p, Initial residual = 0.00522989, Final residual = 5.19477e-05, No Iterations 99
time step continuity errors : sum local = 6.83283e-05, global = 3.64028e-05, cumulative = -6.12508e-05
smoothSolver:  Solving for nuTilda, Initial residual = 0.00325366, Final residual = 2.20348e-05, No Iterations 8
bounding nuTilda, min: -6.31842e-06 max: 0.0117192 average: 0.000149268
ExecutionTime = 5.04 s  ClockTime = 5 s

forceCoeffs forceCoeffs write:
    Cm    = -0.515734
    Cd    = -0.449039
    Cl    = -1.11089
    Cl(f) = -1.07118
    Cl(r) = -0.0397123

Time = 16

smoothSolver:  Solving for Ux, Initial residual = 0.00549012, Final residual = 4.25128e-05, No Iterations 10
smoothSolver:  Solving for Uy, Initial residual = 0.00863604, Final residual = 4.05777e-05, No Iterations 12
DICPBiCGStab:  Solving for p, Initial residual = 0.191981, Final residual = 0.00183964, No Iterations 36
DICPBiCGStab:  Solving for p, Initial residual = 0.0152784, Final residual = 0.000152365, No Iterations 71
DICPBiCGStab:  Solving for p, Initial residual = 0.00656908, Final residual = 6.46609e-05, No Iterations 80
time step continuity errors : sum local = 5.72172e-05, global = -5.08621e-05, cumulative = -0.000112113
smoothSolver:  Solving for nuTilda, Initial residual = 0.0029934, Final residual = 2.068e-05, No Iterations 8
bounding nuTilda, min: -4.47333e-06 max: 0.0120014 average: 0.000156755
ExecutionTime = 5.28 s  ClockTime = 5 s

forceCoeffs forceCoeffs write:
    Cm    = -0.0833512
    Cd    = -1.24317
    Cl    = -0.291423
    Cl(f) = -0.229063
    Cl(r) = -0.0623602

Time = 17

smoothSolver:  Solving for Ux, Initial residual = 0.00572612, Final residual = 4.61659e-05, No Iterations 10
smoothSolver:  Solving for Uy, Initial residual = 0.00922554, Final residual = 9.04519e-05, No Iterations 10
DICPBiCGStab:  Solving for p, Initial residual = 0.171655, Final residual = 0.00167028, No Iterations 55
DICPBiCGStab:  Solving for p, Initial residual = 0.05564, Final residual = 0.000556183, No Iterations 83
DICPBiCGStab:  Solving for p, Initial residual = 0.0152732, Final residual = 0.000117116, No Iterations 114
time step continuity errors : sum local = 4.01058e-05, global = -9.38504e-06, cumulative = -0.000121498
smoothSolver:  Solving for nuTilda, Initial residual = 0.00275718, Final residual = 1.92827e-05, No Iterations 8
bounding nuTilda, min: -4.97305e-05 max: 0.0122314 average: 0.000164251
ExecutionTime = 5.61 s  ClockTime = 6 s

forceCoeffs forceCoeffs write:
    Cm    = 0.355401
    Cd    = -0.767952
    Cl    = 1.20392
    Cl(f) = 0.957362
    Cl(r) = 0.24656

Time = 18

smoothSolver:  Solving for Ux, Initial residual = 0.00530513, Final residual = 4.49185e-05, No Iterations 10
smoothSolver:  Solving for Uy, Initial residual = 0.00879787, Final residual = 4.28331e-05, No Iterations 12
DICPBiCGStab:  Solving for p, Initial residual = 0.25397, Final residual = 0.00214624, No Iterations 47
DICPBiCGStab:  Solving for p, Initial residual = 0.02719, Final residual = 0.000251957, No Iterations 63
DICPBiCGStab:  Solving for p, Initial residual = 0.00818104, Final residual = 7.50283e-05, No Iterations 64
time step continuity errors : sum local = 4.68971e-05, global = -4.06967e-05, cumulative = -0.000162195
smoothSolver:  Solving for nuTilda, Initial residual = 0.00256248, Final residual = 1.78758e-05, No Iterations 8
bounding nuTilda, min: -4.31796e-05 max: 0.012507 average: 0.000171731
ExecutionTime = 5.86 s  ClockTime = 6 s

forceCoeffs forceCoeffs write:
    Cm    = 0.370356
    Cd    = 0.411555
    Cl    = 1.74975
    Cl(f) = 1.24523
    Cl(r) = 0.504521

Time = 19

smoothSolver:  Solving for Ux, Initial residual = 0.00548255, Final residual = 3.77333e-05, No Iterations 10
smoothSolver:  Solving for Uy, Initial residual = 0.00870092, Final residual = 4.05259e-05, No Iterations 12
DICPBiCGStab:  Solving for p, Initial residual = 0.623926, Final residual = 0.00615476, No Iterations 35
DICPBiCGStab:  Solving for p, Initial residual = 0.027583, Final residual = 0.000243989, No Iterations 61
DICPBiCGStab:  Solving for p, Initial residual = 0.0146857, Final residual = 0.000136697, No Iterations 85
time step continuity errors : sum local = 3.79367e-05, global = 2.79065e-05, cumulative = -0.000134288
smoothSolver:  Solving for nuTilda, Initial residual = 0.00241919, Final residual = 1.68043e-05, No Iterations 8
bounding nuTilda, min: -4.75376e-05 max: 0.0127366 average: 0.000179183
ExecutionTime = 6.11 s  ClockTime = 6 s

forceCoeffs forceCoeffs write:
    Cm    = 0.0825597
    Cd    = 0.832678
    Cl    = 1.158
    Cl(f) = 0.66156
    Cl(r) = 0.496441

Time = 20

smoothSolver:  Solving for Ux, Initial residual = 0.00476878, Final residual = 2.86364e-05, No Iterations 10
smoothSolver:  Solving for Uy, Initial residual = 0.00676968, Final residual = 6.04474e-05, No Iterations 10
DICPBiCGStab:  Solving for p, Initial residual = 0.691514, Final residual = 0.00681659, No Iterations 46
DICPBiCGStab:  Solving for p, Initial residual = 0.0395209, Final residual = 0.000392677, No Iterations 65
DICPBiCGStab:  Solving for p, Initial residual = 0.0105234, Final residual = 8.05828e-05, No Iterations 96
time step continuity errors : sum local = 3.59655e-05, global = 3.57462e-05, cumulative = -9.85419e-05
smoothSolver:  Solving for nuTilda, Initial residual = 0.00227096, Final residual = 1.59002e-05, No Iterations 8
bounding nuTilda, min: -4.39585e-05 max: 0.0129257 average: 0.000186629
ExecutionTime = 6.39 s  ClockTime = 7 s

forceCoeffs forceCoeffs write:
    Cm    = -0.141531
    Cd    = 0.430136
    Cl    = 0.374944
    Cl(f) = 0.0459405
    Cl(r) = 0.329003

Time = 21

smoothSolver:  Solving for Ux, Initial residual = 0.00369449, Final residual = 2.34292e-05, No Iterations 10
smoothSolver:  Solving for Uy, Initial residual = 0.00574168, Final residual = 5.28083e-05, No Iterations 10
DICPBiCGStab:  Solving for p, Initial residual = 0.369644, Final residual = 0.00367561, No Iterations 17
DICPBiCGStab:  Solving for p, Initial residual = 0.0214711, Final residual = 0.000192137, No Iterations 126
DICPBiCGStab:  Solving for p, Initial residual = 0.00641762, Final residual = 5.95555e-05, No Iterations 57
time step continuity errors : sum local = 3.74828e-05, global = 2.46763e-05, cumulative = -7.38656e-05
smoothSolver:  Solving for nuTilda, Initial residual = 0.00214333, Final residual = 1.50811e-05, No Iterations 8
bounding nuTilda, min: -6.00435e-05 max: 0.0131576 average: 0.000193938
ExecutionTime = 6.67 s  ClockTime = 7 s

forceCoeffs forceCoeffs write:
    Cm    = -0.116212
    Cd    = -0.112477
    Cl    = 0.207336
    Cl(f) = -0.0125444
    Cl(r) = 0.21988

Time = 22

smoothSolver:  Solving for Ux, Initial residual = 0.00349853, Final residual = 2.40832e-05, No Iterations 10
smoothSolver:  Solving for Uy, Initial residual = 0.00595692, Final residual = 5.53376e-05, No Iterations 10
DICPBiCGStab:  Solving for p, Initial residual = 0.211077, Final residual = 0.00205173, No Iterations 34
DICPBiCGStab:  Solving for p, Initial residual = 0.0167597, Final residual = 0.000155521, No Iterations 50
DICPBiCGStab:  Solving for p, Initial residual = 0.00607912, Final residual = 6.07805e-05, No Iterations 56
time step continuity errors : sum local = 3.2192e-05, global = -3.19943e-05, cumulative = -0.00010586
smoothSolver:  Solving for nuTilda, Initial residual = 0.00202901, Final residual = 1.4299e-05, No Iterations 8
bounding nuTilda, min: -4.62204e-05 max: 0.0133554 average: 0.000201221
ExecutionTime = 6.89 s  ClockTime = 7 s

forceCoeffs forceCoeffs write:
    Cm    = 0.0585298
    Cd    = -0.331682
    Cl    = 0.589654
    Cl(f) = 0.353357
    Cl(r) = 0.236297

Time = 23

smoothSolver:  Solving for Ux, Initial residual = 0.00347096, Final residual = 2.41064e-05, No Iterations 10
smoothSolver:  Solving for Uy, Initial residual = 0.00593875, Final residual = 5.18949e-05, No Iterations 10
DICPBiCGStab:  Solving for p, Initial residual = 0.187205, Final residual = 0.00182131, No Iterations 34
DICPBiCGStab:  Solving for p, Initial residual = 0.0372191, Final residual = 0.00032457, No Iterations 80
DICPBiCGStab:  Solving for p, Initial residual = 0.0160106, Final residual = 0.000135237, No Iterations 89
time step continuity errors : sum local = 2.68859e-05, global = -1.36657e-05, cumulative = -0.000119526
smoothSolver:  Solving for nuTilda, Initial residual = 0.00192463, Final residual = 1.36192e-05, No Iterations 8
bounding nuTilda, min: -3.72536e-05 max: 0.0135213 average: 0.000208527
ExecutionTime = 7.17 s  ClockTime = 7 s

forceCoeffs forceCoeffs write:
    Cm    = 0.153173
    Cd    = -0.00837942
    Cl    = 1.05349
    Cl(f) = 0.679917
    Cl(r) = 0.37357

Time = 24

smoothSolver:  Solving for Ux, Initial residual = 0.00331859, Final residual = 2.24944e-05, No Iterations 10
smoothSolver:  Solving for Uy, Initial residual = 0.00577032, Final residual = 5.29875e-05, No Iterations 10
DICPBiCGStab:  Solving for p, Initial residual = 0.250653, Final residual = 0.00187898, No Iterations 35
DICPBiCGStab:  Solving for p, Initial residual = 0.0612849, Final residual = 0.000598504, No Iterations 50
DICPBiCGStab:  Solving for p, Initial residual = 0.0218535, Final residual = 0.000212277, No Iterations 83
time step continuity errors : sum local = 3.51023e-05, global = -3.40316e-05, cumulative = -0.000153557
smoothSolver:  Solving for nuTilda, Initial residual = 0.00182528, Final residual = 1.29915e-05, No Iterations 8
bounding nuTilda, min: -4.01963e-05 max: 0.0137038 average: 0.000215814
ExecutionTime = 7.42 s  ClockTime = 8 s

forceCoeffs forceCoeffs write:
    Cm    = 0.113061
    Cd    = 0.346164
    Cl    = 1.07889
    Cl(f) = 0.652507
    Cl(r) = 0.426385

Time = 25

smoothSolver:  Solving for Ux, Initial residual = 0.00324998, Final residual = 2.11753e-05, No Iterations 10
smoothSolver:  Solving for Uy, Initial residual = 0.00552558, Final residual = 5.07302e-05, No Iterations 10
DICPBiCGStab:  Solving for p, Initial residual = 0.316249, Final residual = 0.00298679, No Iterations 31
DICPBiCGStab:  Solving for p, Initial residual = 0.074644, Final residual = 0.000591876, No Iterations 47
DICPBiCGStab:  Solving for p, Initial residual = 0.0162414, Final residual = 0.000160679, No Iterations 41
time step continuity errors : sum local = 2.59427e-05, global = 9.67269e-06, cumulative = -0.000143884
smoothSolver:  Solving for nuTilda, Initial residual = 0.00173933, Final residual = 1.24526e-05, No Iterations 8
bounding nuTilda, min: -3.94344e-05 max: 0.0138805 average: 0.000223128
ExecutionTime = 7.62 s  ClockTime = 8 s

forceCoeffs forceCoeffs write:
    Cm    = 0.000724776
    Cd    = 0.419199
    Cl    = 0.859079
    Cl(f) = 0.430264
    Cl(r) = 0.428814

Time = 26

smoothSolver:  Solving for Ux, Initial residual = 0.00304602, Final residual = 1.98935e-05, No Iterations 10
smoothSolver:  Solving for Uy, Initial residual = 0.00495268, Final residual = 4.40771e-05, No Iterations 10
DICPBiCGStab:  Solving for p, Initial residual = 0.3221, Final residual = 0.00266972, No Iterations 31
DICPBiCGStab:  Solving for p, Initial residual = 0.0275164, Final residual = 0.000262429, No Iterations 55
DICPBiCGStab:  Solving for p, Initial residual = 0.00662021, Final residual = 5.06065e-05, No Iterations 88
time step continuity errors : sum local = 1.67588e-05, global = 1.60309e-05, cumulative = -0.000127853
smoothSolver:  Solving for nuTilda, Initial residual = 0.00166513, Final residual = 1.19357e-05, No Iterations 8
bounding nuTilda, min: -3.15012e-05 max: 0.0140337 average: 0.000230456
ExecutionTime = 7.87 s  ClockTime = 8 s

forceCoeffs forceCoeffs write:
    Cm    = -0.0526303
    Cd    = 0.239309
    Cl    = 0.655361
    Cl(f) = 0.27505
    Cl(r) = 0.380311

Time = 27

smoothSolver:  Solving for Ux, Initial residual = 0.00273908, Final residual = 1.8176e-05, No Iterations 10
smoothSolver:  Solving for Uy, Initial residual = 0.00474459, Final residual = 4.24932e-05, No Iterations 10
DICPBiCGStab:  Solving for p, Initial residual = 0.246322, Final residual = 0.00186153, No Iterations 30
DICPBiCGStab:  Solving for p, Initial residual = 0.0215339, Final residual = 0.000210772, No Iterations 42
DICPBiCGStab:  Solving for p, Initial residual = 0.00732319, Final residual = 7.2648e-05, No Iterations 61
time step continuity errors : sum local = 2.68116e-05, global = 1.88067e-05, cumulative = -0.000109047
smoothSolver:  Solving for nuTilda, Initial residual = 0.0015972, Final residual = 1.14715e-05, No Iterations 8
bounding nuTilda, min: -1.01963e-05 max: 0.014174 average: 0.000237775
ExecutionTime = 8.09 s  ClockTime = 8 s

forceCoeffs forceCoeffs write:
    Cm    = -0.00792613
    Cd    = 0.0480219
    Cl    = 0.64801
    Cl(f) = 0.316079
    Cl(r) = 0.331931

Time = 28

smoothSolver:  Solving for Ux, Initial residual = 0.0025486, Final residual = 1.72799e-05, No Iterations 10
smoothSolver:  Solving for Uy, Initial residual = 0.00438022, Final residual = 3.83618e-05, No Iterations 10
DICPBiCGStab:  Solving for p, Initial residual = 0.181028, Final residual = 0.00178654, No Iterations 37
DICPBiCGStab:  Solving for p, Initial residual = 0.0234919, Final residual = 0.000160582, No Iterations 64
DICPBiCGStab:  Solving for p, Initial residual = 0.00755373, Final residual = 6.90688e-05, No Iterations 50
time step continuity errors : sum local = 2.09717e-05, global = -1.03851e-05, cumulative = -0.000119432
smoothSolver:  Solving for nuTilda, Initial residual = 0.00153461, Final residual = 1.10572e-05, No Iterations 8
bounding nuTilda, min: -1.16993e-05 max: 0.0143426 average: 0.000245093
ExecutionTime = 8.31 s  ClockTime = 8 s

forceCoeffs forceCoeffs write:
    Cm    = 0.0673376
    Cd    = 0.0249952
    Cl    = 0.785883
    Cl(f) = 0.460279
    Cl(r) = 0.325604

Time = 29

smoothSolver:  Solving for Ux, Initial residual = 0.00251754, Final residual = 1.70704e-05, No Iterations 10
smoothSolver:  Solving for Uy, Initial residual = 0.00434578, Final residual = 3.77917e-05, No Iterations 10
DICPBiCGStab:  Solving for p, Initial residual = 0.163609, Final residual = 0.00160572, No Iterations 18
DICPBiCGStab:  Solving for p, Initial residual = 0.0260593, Final residual = 0.00019704, No Iterations 77
DICPBiCGStab:  Solving for p, Initial residual = 0.00887237, Final residual = 8.523e-05, No Iterations 89
time step continuity errors : sum local = 1.74341e-05, global = -1.32882e-05, cumulative = -0.00013272
smoothSolver:  Solving for nuTilda, Initial residual = 0.00148028, Final residual = 1.06791e-05, No Iterations 8
bounding nuTilda, min: -1.58569e-05 max: 0.0144894 average: 0.000252453
ExecutionTime = 8.56 s  ClockTime = 9 s

forceCoeffs forceCoeffs write:
    Cm    = 0.0940122
    Cd    = 0.129694
    Cl    = 0.890402
    Cl(f) = 0.539213
    Cl(r) = 0.351189

Time = 30

smoothSolver:  Solving for Ux, Initial residual = 0.00252747, Final residual = 1.64896e-05, No Iterations 10
smoothSolver:  Solving for Uy, Initial residual = 0.00448018, Final residual = 3.97612e-05, No Iterations 10
DICPBiCGStab:  Solving for p, Initial residual = 0.184668, Final residual = 0.00163884, No Iterations 21
DICPBiCGStab:  Solving for p, Initial residual = 0.0357998, Final residual = 0.000354384, No Iterations 54
DICPBiCGStab:  Solving for p, Initial residual = 0.0112983, Final residual = 0.00011278, No Iterations 64
time step continuity errors : sum local = 2.08357e-05, global = -1.77463e-05, cumulative = -0.000150466
smoothSolver:  Solving for nuTilda, Initial residual = 0.00142848, Final residual = 1.03316e-05, No Iterations 8
bounding nuTilda, min: -3.2857e-05 max: 0.0146165 average: 0.000259847
ExecutionTime = 8.79 s  ClockTime = 9 s

forceCoeffs forceCoeffs write:
    Cm    = 0.0583064
    Cd    = 0.232275
    Cl    = 0.915858
    Cl(f) = 0.516236
    Cl(r) = 0.399623

Time = 31

smoothSolver:  Solving for Ux, Initial residual = 0.00250613, Final residual = 1.5805e-05, No Iterations 10
smoothSolver:  Solving for Uy, Initial residual = 0.0044349, Final residual = 3.86197e-05, No Iterations 10
DICPBiCGStab:  Solving for p, Initial residual = 0.195878, Final residual = 0.00159895, No Iterations 40
DICPBiCGStab:  Solving for p, Initial residual = 0.0269749, Final residual = 0.000208884, No Iterations 62
DICPBiCGStab:  Solving for p, Initial residual = 0.00764979, Final residual = 7.62158e-05, No Iterations 41
time step continuity errors : sum local = 1.7276e-05, global = 7.95401e-06, cumulative = -0.000142512
smoothSolver:  Solving for nuTilda, Initial residual = 0.00137961, Final residual = 1.00072e-05, No Iterations 8
bounding nuTilda, min: -2.35856e-05 max: 0.0147393 average: 0.000267267
ExecutionTime = 9.01 s  ClockTime = 9 s

forceCoeffs forceCoeffs write:
    Cm    = 0.0140516
    Cd    = 0.231701
    Cl    = 0.857285
    Cl(f) = 0.442694
    Cl(r) = 0.414591

Time = 32

smoothSolver:  Solving for Ux, Initial residual = 0.00242415, Final residual = 1.53903e-05, No Iterations 10
smoothSolver:  Solving for Uy, Initial residual = 0.00436736, Final residual = 3.65215e-05, No Iterations 10
DICPBiCGStab:  Solving for p, Initial residual = 0.180823, Final residual = 0.0016382, No Iterations 20
DICPBiCGStab:  Solving for p, Initial residual = 0.0209765, Final residual = 0.00020951, No Iterations 56
DICPBiCGStab:  Solving for p, Initial residual = 0.00506838, Final residual = 3.38422e-05, No Iterations 101
time step continuity errors : sum local = 8.57723e-06, global = -7.03825e-06, cumulative = -0.000149551
smoothSolver:  Solving for nuTilda, Initial residual = 0.00133263, Final residual = 9.70931e-06, No Iterations 8
bounding nuTilda, min: -2.42819e-05 max: 0.0148792 average: 0.000274704
ExecutionTime = 9.27 s  ClockTime = 9 s

forceCoeffs forceCoeffs write:
    Cm    = 0.00407433
    Cd    = 0.172935
    Cl    = 0.811923
    Cl(f) = 0.410036
    Cl(r) = 0.401887

Time = 33

smoothSolver:  Solving for Ux, Initial residual = 0.0022968, Final residual = 1.47402e-05, No Iterations 10
smoothSolver:  Solving for Uy, Initial residual = 0.00419885, Final residual = 3.39301e-05, No Iterations 10
DICPBiCGStab:  Solving for p, Initial residual = 0.154376, Final residual = 0.00145865, No Iterations 20
DICPBiCGStab:  Solving for p, Initial residual = 0.0185141, Final residual = 0.000102477, No Iterations 72
DICPBiCGStab:  Solving for p, Initial residual = 0.00509853, Final residual = 4.94613e-05, No Iterations 44
time step continuity errors : sum local = 1.30927e-05, global = 2.81047e-06, cumulative = -0.00014674
smoothSolver:  Solving for nuTilda, Initial residual = 0.00129057, Final residual = 9.43468e-06, No Iterations 8
bounding nuTilda, min: -3.67178e-05 max: 0.0150027 average: 0.000282155
ExecutionTime = 9.47 s  ClockTime = 10 s

forceCoeffs forceCoeffs write:
    Cm    = 0.0283533
    Cd    = 0.130522
    Cl    = 0.814539
    Cl(f) = 0.435623
    Cl(r) = 0.378916

Time = 34

smoothSolver:  Solving for Ux, Initial residual = 0.00221527, Final residual = 1.4016e-05, No Iterations 10
smoothSolver:  Solving for Uy, Initial residual = 0.00404434, Final residual = 3.1827e-05, No Iterations 10
DICPBiCGStab:  Solving for p, Initial residual = 0.137414, Final residual = 0.00136254, No Iterations 18
DICPBiCGStab:  Solving for p, Initial residual = 0.0177432, Final residual = 7.94114e-05, No Iterations 65
DICPBiCGStab:  Solving for p, Initial residual = 0.00493328, Final residual = 4.75834e-05, No Iterations 36
time step continuity errors : sum local = 1.13351e-05, global = -5.83671e-06, cumulative = -0.000152577
smoothSolver:  Solving for nuTilda, Initial residual = 0.00125289, Final residual = 9.18887e-06, No Iterations 8
bounding nuTilda, min: -6.09576e-05 max: 0.0151109 average: 0.000289599
ExecutionTime = 9.66 s  ClockTime = 10 s

forceCoeffs forceCoeffs write:
    Cm    = 0.0528917
    Cd    = 0.138054
    Cl    = 0.85129
    Cl(f) = 0.478537
    Cl(r) = 0.372753

Time = 35

smoothSolver:  Solving for Ux, Initial residual = 0.00218693, Final residual = 1.36935e-05, No Iterations 10
smoothSolver:  Solving for Uy, Initial residual = 0.00408953, Final residual = 3.20353e-05, No Iterations 10
DICPBiCGStab:  Solving for p, Initial residual = 0.128734, Final residual = 0.0012809, No Iterations 17
DICPBiCGStab:  Solving for p, Initial residual = 0.015087, Final residual = 0.000127378, No Iterations 73
DICPBiCGStab:  Solving for p, Initial residual = 0.00442889, Final residual = 4.4271e-05, No Iterations 65
time step continuity errors : sum local = 9.97532e-06, global = -9.95195e-06, cumulative = -0.000162529
smoothSolver:  Solving for nuTilda, Initial residual = 0.00121968, Final residual = 8.97136e-06, No Iterations 8
bounding nuTilda, min: -4.33423e-05 max: 0.0152111 average: 0.000297048
ExecutionTime = 9.87 s  ClockTime = 10 s

forceCoeffs forceCoeffs write:
    Cm    = 0.0537196
    Cd    = 0.171966
    Cl    = 0.886015
    Cl(f) = 0.496727
    Cl(r) = 0.389288

Time = 36

smoothSolver:  Solving for Ux, Initial residual = 0.00217784, Final residual = 1.34284e-05, No Iterations 10
smoothSolver:  Solving for Uy, Initial residual = 0.00415154, Final residual = 3.25818e-05, No Iterations 10
DICPBiCGStab:  Solving for p, Initial residual = 0.125971, Final residual = 0.00104917, No Iterations 16
DICPBiCGStab:  Solving for p, Initial residual = 0.0165135, Final residual = 0.000158771, No Iterations 53
DICPBiCGStab:  Solving for p, Initial residual = 0.00466042, Final residual = 4.6567e-05, No Iterations 60
time step continuity errors : sum local = 1.03343e-05, global = -4.49089e-06, cumulative = -0.00016702
smoothSolver:  Solving for nuTilda, Initial residual = 0.0011894, Final residual = 8.76416e-06, No Iterations 8
bounding nuTilda, min: -5.01719e-05 max: 0.0153351 average: 0.000304503
ExecutionTime = 10.06 s  ClockTime = 10 s

forceCoeffs forceCoeffs write:
    Cm    = 0.0368507
    Cd    = 0.193258
    Cl    = 0.892933
    Cl(f) = 0.483317
    Cl(r) = 0.409616

Time = 37

smoothSolver:  Solving for Ux, Initial residual = 0.00215699, Final residual = 1.30708e-05, No Iterations 10
smoothSolver:  Solving for Uy, Initial residual = 0.00414629, Final residual = 3.20606e-05, No Iterations 10
DICPBiCGStab:  Solving for p, Initial residual = 0.12346, Final residual = 0.00122949, No Iterations 19
DICPBiCGStab:  Solving for p, Initial residual = 0.015144, Final residual = 9.32733e-05, No Iterations 64
DICPBiCGStab:  Solving for p, Initial residual = 0.00428496, Final residual = 4.14535e-05, No Iterations 41
time step continuity errors : sum local = 9.25905e-06, global = 4.32763e-07, cumulative = -0.000166587
smoothSolver:  Solving for nuTilda, Initial residual = 0.00116327, Final residual = 8.58576e-06, No Iterations 8
bounding nuTilda, min: -5.92764e-05 max: 0.0154681 average: 0.000311916
ExecutionTime = 10.28 s  ClockTime = 10 s

forceCoeffs forceCoeffs write:
    Cm    = 0.0236261
    Cd    = 0.186361
    Cl    = 0.87346
    Cl(f) = 0.460356
    Cl(r) = 0.413104

Time = 38

smoothSolver:  Solving for Ux, Initial residual = 0.00211068, Final residual = 1.27329e-05, No Iterations 10
smoothSolver:  Solving for Uy, Initial residual = 0.00413955, Final residual = 3.11847e-05, No Iterations 10
DICPBiCGStab:  Solving for p, Initial residual = 0.115077, Final residual = 0.0011425, No Iterations 18
DICPBiCGStab:  Solving for p, Initial residual = 0.0132537, Final residual = 0.00011658, No Iterations 44
DICPBiCGStab:  Solving for p, Initial residual = 0.00369423, Final residual = 3.27334e-05, No Iterations 77
time step continuity errors : sum local = 7.27851e-06, global = 6.76145e-06, cumulative = -0.000159825
smoothSolver:  Solving for nuTilda, Initial residual = 0.0011398, Final residual = 8.41722e-06, No Iterations 8
bounding nuTilda, min: -4.93517e-05 max: 0.0156799 average: 0.000319333
ExecutionTime = 10.53 s  ClockTime = 11 s

forceCoeffs forceCoeffs write:
    Cm    = 0.0237787
    Cd    = 0.170418
    Cl    = 0.85804
    Cl(f) = 0.452799
    Cl(r) = 0.405241

Time = 39

smoothSolver:  Solving for Ux, Initial residual = 0.00205052, Final residual = 1.2536e-05, No Iterations 10
smoothSolver:  Solving for Uy, Initial residual = 0.00410109, Final residual = 3.01077e-05, No Iterations 10
DICPBiCGStab:  Solving for p, Initial residual = 0.101698, Final residual = 0.0008721, No Iterations 14
DICPBiCGStab:  Solving for p, Initial residual = 0.0120103, Final residual = 0.000113542, No Iterations 55
DICPBiCGStab:  Solving for p, Initial residual = 0.00314345, Final residual = 3.12444e-05, No Iterations 116
time step continuity errors : sum local = 7.21788e-06, global = -6.81345e-06, cumulative = -0.000166639
smoothSolver:  Solving for nuTilda, Initial residual = 0.0011177, Final residual = 8.25199e-06, No Iterations 8
bounding nuTilda, min: -4.48123e-05 max: 0.0159162 average: 0.000326712
ExecutionTime = 10.82 s  ClockTime = 11 s

forceCoeffs forceCoeffs write:
    Cm    = 0.0323381
    Cd    = 0.166738
    Cl    = 0.867564
    Cl(f) = 0.46612
    Cl(r) = 0.401444

Time = 40

smoothSolver:  Solving for Ux, Initial residual = 0.00200593, Final residual = 1.22467e-05, No Iterations 10
smoothSolver:  Solving for Uy, Initial residual = 0.00407999, Final residual = 2.93888e-05, No Iterations 10
DICPBiCGStab:  Solving for p, Initial residual = 0.0913615, Final residual = 0.000891632, No Iterations 16
DICPBiCGStab:  Solving for p, Initial residual = 0.0101278, Final residual = 9.47316e-05, No Iterations 61
DICPBiCGStab:  Solving for p, Initial residual = 0.00277089, Final residual = 2.61371e-05, No Iterations 54
time step continuity errors : sum local = 5.99426e-06, global = -3.6722e-06, cumulative = -0.000170311
smoothSolver:  Solving for nuTilda, Initial residual = 0.00109727, Final residual = 8.10127e-06, No Iterations 8
bounding nuTilda, min: -8.49815e-05 max: 0.0161385 average: 0.000334046
ExecutionTime = 11.01 s  ClockTime = 11 s

forceCoeffs forceCoeffs write:
    Cm    = 0.0372739
    Cd    = 0.175319
    Cl    = 0.89041
    Cl(f) = 0.482479
    Cl(r) = 0.407931

Time = 41

smoothSolver:  Solving for Ux, Initial residual = 0.00199008, Final residual = 1.20088e-05, No Iterations 10
smoothSolver:  Solving for Uy, Initial residual = 0.00410589, Final residual = 2.95016e-05, No Iterations 10
DICPBiCGStab:  Solving for p, Initial residual = 0.0867436, Final residual = 0.000836365, No Iterations 17
DICPBiCGStab:  Solving for p, Initial residual = 0.00915524, Final residual = 8.16615e-05, No Iterations 58
DICPBiCGStab:  Solving for p, Initial residual = 0.00261121, Final residual = 2.60597e-05, No Iterations 51
time step continuity errors : sum local = 5.98913e-06, global = -5.98412e-06, cumulative = -0.000176295
smoothSolver:  Solving for nuTilda, Initial residual = 0.00107897, Final residual = 7.96011e-06, No Iterations 8
bounding nuTilda, min: -4.58855e-05 max: 0.0163475 average: 0.000341372
ExecutionTime = 11.23 s  ClockTime = 11 s

forceCoeffs forceCoeffs write:
    Cm    = 0.0344211
    Cd    = 0.185315
    Cl    = 0.909729
    Cl(f) = 0.489286
    Cl(r) = 0.420443

Time = 42

smoothSolver:  Solving for Ux, Initial residual = 0.0019865, Final residual = 1.18804e-05, No Iterations 10
smoothSolver:  Solving for Uy, Initial residual = 0.00410805, Final residual = 2.96109e-05, No Iterations 10
DICPBiCGStab:  Solving for p, Initial residual = 0.0812187, Final residual = 0.000801927, No Iterations 18
DICPBiCGStab:  Solving for p, Initial residual = 0.00850958, Final residual = 8.14857e-05, No Iterations 52
DICPBiCGStab:  Solving for p, Initial residual = 0.00240305, Final residual = 2.39887e-05, No Iterations 41
time step continuity errors : sum local = 5.64815e-06, global = -4.36705e-06, cumulative = -0.000180662
smoothSolver:  Solving for nuTilda, Initial residual = 0.00106186, Final residual = 7.83177e-06, No Iterations 8
bounding nuTilda, min: -8.0819e-05 max: 0.0165629 average: 0.000348661
ExecutionTime = 11.42 s  ClockTime = 12 s

forceCoeffs forceCoeffs write:
    Cm    = 0.0281524
    Cd    = 0.184471
    Cl    = 0.912563
    Cl(f) = 0.484434
    Cl(r) = 0.428129

Time = 43

smoothSolver:  Solving for Ux, Initial residual = 0.00196914, Final residual = 1.17463e-05, No Iterations 10
smoothSolver:  Solving for Uy, Initial residual = 0.00410721, Final residual = 2.93172e-05, No Iterations 10
DICPBiCGStab:  Solving for p, Initial residual = 0.0758919, Final residual = 0.000726162, No Iterations 18
DICPBiCGStab:  Solving for p, Initial residual = 0.00785543, Final residual = 7.77791e-05, No Iterations 44
DICPBiCGStab:  Solving for p, Initial residual = 0.00217052, Final residual = 2.16795e-05, No Iterations 46
time step continuity errors : sum local = 5.08287e-06, global = 2.87034e-06, cumulative = -0.000177792
smoothSolver:  Solving for nuTilda, Initial residual = 0.00104594, Final residual = 7.7075e-06, No Iterations 8
bounding nuTilda, min: -7.4955e-05 max: 0.0167833 average: 0.00035595
ExecutionTime = 11.62 s  ClockTime = 12 s

forceCoeffs forceCoeffs write:
    Cm    = 0.0251057
    Cd    = 0.178497
    Cl    = 0.905688
    Cl(f) = 0.47795
    Cl(r) = 0.427739

Time = 44

smoothSolver:  Solving for Ux, Initial residual = 0.00194054, Final residual = 1.16211e-05, No Iterations 10
smoothSolver:  Solving for Uy, Initial residual = 0.00409781, Final residual = 2.87438e-05, No Iterations 10
DICPBiCGStab:  Solving for p, Initial residual = 0.0706121, Final residual = 0.000636664, No Iterations 16
DICPBiCGStab:  Solving for p, Initial residual = 0.00709341, Final residual = 6.77768e-05, No Iterations 82
DICPBiCGStab:  Solving for p, Initial residual = 0.00174615, Final residual = 1.64054e-05, No Iterations 94
time step continuity errors : sum local = 4.37663e-06, global = 2.04819e-06, cumulative = -0.000175744
smoothSolver:  Solving for nuTilda, Initial residual = 0.00103098, Final residual = 7.5861e-06, No Iterations 8
bounding nuTilda, min: -0.000113121 max: 0.0169918 average: 0.00036322
ExecutionTime = 11.89 s  ClockTime = 12 s

forceCoeffs forceCoeffs write:
    Cm    = 0.0264284
    Cd    = 0.173722
    Cl    = 0.901707
    Cl(f) = 0.477282
    Cl(r) = 0.424425

Time = 45

smoothSolver:  Solving for Ux, Initial residual = 0.00190498, Final residual = 1.14429e-05, No Iterations 10
smoothSolver:  Solving for Uy, Initial residual = 0.00408661, Final residual = 2.81516e-05, No Iterations 10
DICPBiCGStab:  Solving for p, Initial residual = 0.0643615, Final residual = 0.000592138, No Iterations 17
DICPBiCGStab:  Solving for p, Initial residual = 0.00635282, Final residual = 6.33549e-05, No Iterations 67
DICPBiCGStab:  Solving for p, Initial residual = 0.00162669, Final residual = 1.60471e-05, No Iterations 42
time step continuity errors : sum local = 4.00979e-06, global = 3.13519e-07, cumulative = -0.00017543
smoothSolver:  Solving for nuTilda, Initial residual = 0.00101774, Final residual = 7.47671e-06, No Iterations 8
bounding nuTilda, min: -9.72259e-05 max: 0.0171891 average: 0.000370479
ExecutionTime = 12.09 s  ClockTime = 12 s

forceCoeffs forceCoeffs write:
    Cm    = 0.0290485
    Cd    = 0.175736
    Cl    = 0.910814
    Cl(f) = 0.484456
    Cl(r) = 0.426359

Time = 46

smoothSolver:  Solving for Ux, Initial residual = 0.00188071, Final residual = 1.12561e-05, No Iterations 10
smoothSolver:  Solving for Uy, Initial residual = 0.00409293, Final residual = 2.78953e-05, No Iterations 10
DICPBiCGStab:  Solving for p, Initial residual = 0.0590262, Final residual = 0.000495044, No Iterations 27
DICPBiCGStab:  Solving for p, Initial residual = 0.0056506, Final residual = 5.62209e-05, No Iterations 43
DICPBiCGStab:  Solving for p, Initial residual = 0.00152807, Final residual = 1.51304e-05, No Iterations 54
time step continuity errors : sum local = 3.67626e-06, global = 5.51202e-07, cumulative = -0.000174879
smoothSolver:  Solving for nuTilda, Initial residual = 0.00100568, Final residual = 7.37936e-06, No Iterations 8
bounding nuTilda, min: -9.29347e-05 max: 0.017399 average: 0.000377728
ExecutionTime = 12.31 s  ClockTime = 12 s

forceCoeffs forceCoeffs write:
    Cm    = 0.0295102
    Cd    = 0.180228
    Cl    = 0.926097
    Cl(f) = 0.492559
    Cl(r) = 0.433539

Time = 47

smoothSolver:  Solving for Ux, Initial residual = 0.00186802, Final residual = 1.1072e-05, No Iterations 10
smoothSolver:  Solving for Uy, Initial residual = 0.00408543, Final residual = 2.77299e-05, No Iterations 10
DICPBiCGStab:  Solving for p, Initial residual = 0.0557091, Final residual = 0.000489494, No Iterations 29
DICPBiCGStab:  Solving for p, Initial residual = 0.00524368, Final residual = 3.46243e-05, No Iterations 75
DICPBiCGStab:  Solving for p, Initial residual = 0.00144027, Final residual = 1.38654e-05, No Iterations 44
time step continuity errors : sum local = 3.35406e-06, global = -5.05473e-09, cumulative = -0.000174884
smoothSolver:  Solving for nuTilda, Initial residual = 0.000995207, Final residual = 7.28783e-06, No Iterations 8
bounding nuTilda, min: -8.14015e-05 max: 0.0176077 average: 0.000384968
ExecutionTime = 12.53 s  ClockTime = 13 s

forceCoeffs forceCoeffs write:
    Cm    = 0.0277028
    Cd    = 0.182674
    Cl    = 0.937107
    Cl(f) = 0.496256
    Cl(r) = 0.440851

Time = 48

smoothSolver:  Solving for Ux, Initial residual = 0.00185815, Final residual = 1.09737e-05, No Iterations 10
smoothSolver:  Solving for Uy, Initial residual = 0.00408267, Final residual = 2.75518e-05, No Iterations 10
DICPBiCGStab:  Solving for p, Initial residual = 0.0526665, Final residual = 0.000516786, No Iterations 18
DICPBiCGStab:  Solving for p, Initial residual = 0.00491191, Final residual = 4.87821e-05, No Iterations 41
DICPBiCGStab:  Solving for p, Initial residual = 0.00137487, Final residual = 1.3412e-05, No Iterations 40
time step continuity errors : sum local = 3.31685e-06, global = -3.06079e-07, cumulative = -0.00017519
smoothSolver:  Solving for nuTilda, Initial residual = 0.000984595, Final residual = 7.20634e-06, No Iterations 8
bounding nuTilda, min: -9.21913e-05 max: 0.0178061 average: 0.000392207
ExecutionTime = 12.73 s  ClockTime = 13 s

forceCoeffs forceCoeffs write:
    Cm    = 0.0257912
    Cd    = 0.180762
    Cl    = 0.940795
    Cl(f) = 0.496189
    Cl(r) = 0.444606

Time = 49

smoothSolver:  Solving for Ux, Initial residual = 0.00184128, Final residual = 1.08917e-05, No Iterations 10
smoothSolver:  Solving for Uy, Initial residual = 0.00407892, Final residual = 2.71673e-05, No Iterations 10
DICPBiCGStab:  Solving for p, Initial residual = 0.0493022, Final residual = 0.000454843, No Iterations 18
DICPBiCGStab:  Solving for p, Initial residual = 0.00447693, Final residual = 4.21276e-05, No Iterations 39
DICPBiCGStab:  Solving for p, Initial residual = 0.00123741, Final residual = 9.20691e-06, No Iterations 78
time step continuity errors : sum local = 2.2819e-06, global = 1.74705e-06, cumulative = -0.000173443
smoothSolver:  Solving for nuTilda, Initial residual = 0.000975143, Final residual = 7.12687e-06, No Iterations 8
bounding nuTilda, min: -0.000107672 max: 0.0179948 average: 0.000399443
ExecutionTime = 12.93 s  ClockTime = 13 s

forceCoeffs forceCoeffs write:
    Cm    = 0.0257056
    Cd    = 0.178245
    Cl    = 0.942101
    Cl(f) = 0.496756
    Cl(r) = 0.445345

Time = 50

smoothSolver:  Solving for Ux, Initial residual = 0.00181655, Final residual = 1.07477e-05, No Iterations 10
smoothSolver:  Solving for Uy, Initial residual = 0.00408567, Final residual = 2.67811e-05, No Iterations 10
DICPBiCGStab:  Solving for p, Initial residual = 0.0463401, Final residual = 0.000444452, No Iterations 18
DICPBiCGStab:  Solving for p, Initial residual = 0.00414267, Final residual = 3.95053e-05, No Iterations 43
DICPBiCGStab:  Solving for p, Initial residual = 0.00113333, Final residual = 9.65946e-06, No Iterations 77
time step continuity errors : sum local = 2.43125e-06, global = 1.90165e-07, cumulative = -0.000173253
smoothSolver:  Solving for nuTilda, Initial residual = 0.000966748, Final residual = 7.05208e-06, No Iterations 8
bounding nuTilda, min: -0.000108957 max: 0.0181922 average: 0.000406688
ExecutionTime = 13.15 s  ClockTime = 13 s

forceCoeffs forceCoeffs write:
    Cm    = 0.0265728
    Cd    = 0.176896
    Cl    = 0.946031
    Cl(f) = 0.499589
    Cl(r) = 0.446443

Time = 51

smoothSolver:  Solving for Ux, Initial residual = 0.00179115, Final residual = 1.05581e-05, No Iterations 10
smoothSolver:  Solving for Uy, Initial residual = 0.00409521, Final residual = 2.64713e-05, No Iterations 10
DICPBiCGStab:  Solving for p, Initial residual = 0.043123, Final residual = 0.00042862, No Iterations 24
DICPBiCGStab:  Solving for p, Initial residual = 0.00379453, Final residual = 3.71727e-05, No Iterations 39
DICPBiCGStab:  Solving for p, Initial residual = 0.00104307, Final residual = 9.37677e-06, No Iterations 74
time step continuity errors : sum local = 2.3838e-06, global = 5.42681e-07, cumulative = -0.00017271
smoothSolver:  Solving for nuTilda, Initial residual = 0.000958906, Final residual = 6.98423e-06, No Iterations 8
bounding nuTilda, min: -0.000106295 max: 0.0183924 average: 0.000413916
ExecutionTime = 13.36 s  ClockTime = 14 s

forceCoeffs forceCoeffs write:
    Cm    = 0.0269314
    Cd    = 0.177946
    Cl    = 0.953193
    Cl(f) = 0.503528
    Cl(r) = 0.449665

Time = 52

smoothSolver:  Solving for Ux, Initial residual = 0.00177127, Final residual = 1.03721e-05, No Iterations 10
smoothSolver:  Solving for Uy, Initial residual = 0.00409846, Final residual = 2.61465e-05, No Iterations 10
DICPBiCGStab:  Solving for p, Initial residual = 0.040323, Final residual = 0.000388967, No Iterations 19
DICPBiCGStab:  Solving for p, Initial residual = 0.00353504, Final residual = 3.53361e-05, No Iterations 49
DICPBiCGStab:  Solving for p, Initial residual = 0.0009878, Final residual = 8.8333e-06, No Iterations 53
time step continuity errors : sum local = 2.26972e-06, global = 1.429e-06, cumulative = -0.000171281
smoothSolver:  Solving for nuTilda, Initial residual = 0.000951708, Final residual = 6.93153e-06, No Iterations 8
bounding nuTilda, min: -0.000134024 max: 0.0185837 average: 0.000421164
ExecutionTime = 13.57 s  ClockTime = 14 s

forceCoeffs forceCoeffs write:
    Cm    = 0.0260394
    Cd    = 0.179875
    Cl    = 0.961464
    Cl(f) = 0.506771
    Cl(r) = 0.454693

Time = 53

smoothSolver:  Solving for Ux, Initial residual = 0.0017572, Final residual = 1.02118e-05, No Iterations 10
smoothSolver:  Solving for Uy, Initial residual = 0.00409972, Final residual = 2.57716e-05, No Iterations 10
DICPBiCGStab:  Solving for p, Initial residual = 0.0380863, Final residual = 0.000360865, No Iterations 19
DICPBiCGStab:  Solving for p, Initial residual = 0.00332151, Final residual = 3.18846e-05, No Iterations 48
DICPBiCGStab:  Solving for p, Initial residual = 0.00095929, Final residual = 9.71679e-06, No Iterations 48
time step continuity errors : sum local = 2.52413e-06, global = 6.84717e-07, cumulative = -0.000170597
smoothSolver:  Solving for nuTilda, Initial residual = 0.000944553, Final residual = 6.87712e-06, No Iterations 8
bounding nuTilda, min: -0.000146753 max: 0.0187665 average: 0.000428411
ExecutionTime = 13.76 s  ClockTime = 14 s

forceCoeffs forceCoeffs write:
    Cm    = 0.0247422
    Cd    = 0.180376
    Cl    = 0.967323
    Cl(f) = 0.508403
    Cl(r) = 0.458919

Time = 54

smoothSolver:  Solving for Ux, Initial residual = 0.00174123, Final residual = 1.00624e-05, No Iterations 10
smoothSolver:  Solving for Uy, Initial residual = 0.0041049, Final residual = 2.54667e-05, No Iterations 10
DICPBiCGStab:  Solving for p, Initial residual = 0.0362336, Final residual = 0.000357369, No Iterations 18
DICPBiCGStab:  Solving for p, Initial residual = 0.00317306, Final residual = 2.76587e-05, No Iterations 50
DICPBiCGStab:  Solving for p, Initial residual = 0.00089997, Final residual = 9.91587e-06, No Iterations 48
time step continuity errors : sum local = 2.59937e-06, global = 1.81949e-06, cumulative = -0.000168777
smoothSolver:  Solving for nuTilda, Initial residual = 0.000937984, Final residual = 6.83172e-06, No Iterations 8
bounding nuTilda, min: -0.000158621 max: 0.0189458 average: 0.000435705
ExecutionTime = 13.96 s  ClockTime = 14 s

forceCoeffs forceCoeffs write:
    Cm    = 0.0242436
    Cd    = 0.179976
    Cl    = 0.971012
    Cl(f) = 0.509749
    Cl(r) = 0.461262

Time = 55

smoothSolver:  Solving for Ux, Initial residual = 0.00172294, Final residual = 9.92109e-06, No Iterations 10
smoothSolver:  Solving for Uy, Initial residual = 0.00411812, Final residual = 2.52484e-05, No Iterations 10
DICPBiCGStab:  Solving for p, Initial residual = 0.0343211, Final residual = 0.000307412, No Iterations 19
DICPBiCGStab:  Solving for p, Initial residual = 0.00295589, Final residual = 2.86764e-05, No Iterations 43
DICPBiCGStab:  Solving for p, Initial residual = 0.000835091, Final residual = 9.52876e-06, No Iterations 79
time step continuity errors : sum local = 2.52806e-06, global = 2.23769e-06, cumulative = -0.000166539
smoothSolver:  Solving for nuTilda, Initial residual = 0.000931943, Final residual = 6.79193e-06, No Iterations 8
bounding nuTilda, min: -0.000170172 max: 0.0191403 average: 0.000443022
ExecutionTime = 14.17 s  ClockTime = 14 s

forceCoeffs forceCoeffs write:
    Cm    = 0.0249265
    Cd    = 0.179301
    Cl    = 0.975949
    Cl(f) = 0.512901
    Cl(r) = 0.463048

Time = 56

smoothSolver:  Solving for Ux, Initial residual = 0.00170341, Final residual = 9.77929e-06, No Iterations 10
smoothSolver:  Solving for Uy, Initial residual = 0.00413575, Final residual = 2.50144e-05, No Iterations 10
DICPBiCGStab:  Solving for p, Initial residual = 0.0321765, Final residual = 0.000256109, No Iterations 19
DICPBiCGStab:  Solving for p, Initial residual = 0.00269819, Final residual = 2.66862e-05, No Iterations 42
DICPBiCGStab:  Solving for p, Initial residual = 0.000802046, Final residual = 7.66381e-06, No Iterations 76
time step continuity errors : sum local = 2.05095e-06, global = 8.40921e-07, cumulative = -0.000165698
smoothSolver:  Solving for nuTilda, Initial residual = 0.000927301, Final residual = 6.75518e-06, No Iterations 8
bounding nuTilda, min: -0.000157107 max: 0.0193672 average: 0.000450395
ExecutionTime = 14.39 s  ClockTime = 15 s

forceCoeffs forceCoeffs write:
    Cm    = 0.0258591
    Cd    = 0.179573
    Cl    = 0.981045
    Cl(f) = 0.516382
    Cl(r) = 0.464663

Time = 57

smoothSolver:  Solving for Ux, Initial residual = 0.00168304, Final residual = 9.64164e-06, No Iterations 10
smoothSolver:  Solving for Uy, Initial residual = 0.00415392, Final residual = 2.47231e-05, No Iterations 10
DICPBiCGStab:  Solving for p, Initial residual = 0.0302865, Final residual = 0.000254797, No Iterations 19
DICPBiCGStab:  Solving for p, Initial residual = 0.0024869, Final residual = 2.44014e-05, No Iterations 46
DICPBiCGStab:  Solving for p, Initial residual = 0.000735585, Final residual = 9.58013e-06, No Iterations 65
time step continuity errors : sum local = 2.59393e-06, global = 1.96816e-06, cumulative = -0.00016373
smoothSolver:  Solving for nuTilda, Initial residual = 0.000922106, Final residual = 6.71606e-06, No Iterations 8
bounding nuTilda, min: -0.000190903 max: 0.0196369 average: 0.000457808
ExecutionTime = 14.61 s  ClockTime = 15 s

forceCoeffs forceCoeffs write:
    Cm    = 0.0261978
    Cd    = 0.180457
    Cl    = 0.98744
    Cl(f) = 0.519918
    Cl(r) = 0.467522

Time = 58

smoothSolver:  Solving for Ux, Initial residual = 0.00166646, Final residual = 9.49477e-06, No Iterations 10
smoothSolver:  Solving for Uy, Initial residual = 0.00416607, Final residual = 2.44341e-05, No Iterations 10
DICPBiCGStab:  Solving for p, Initial residual = 0.0285177, Final residual = 0.000281436, No Iterations 21
DICPBiCGStab:  Solving for p, Initial residual = 0.00237097, Final residual = 2.26594e-05, No Iterations 43
DICPBiCGStab:  Solving for p, Initial residual = 0.000685493, Final residual = 8.96665e-06, No Iterations 48
time step continuity errors : sum local = 2.44757e-06, global = 2.02955e-06, cumulative = -0.000161701
smoothSolver:  Solving for nuTilda, Initial residual = 0.000917894, Final residual = 6.68336e-06, No Iterations 8
bounding nuTilda, min: -0.000151646 max: 0.01992 average: 0.000465283
ExecutionTime = 14.8 s  ClockTime = 15 s

forceCoeffs forceCoeffs write:
    Cm    = 0.0253477
    Cd    = 0.181192
    Cl    = 0.991869
    Cl(f) = 0.521282
    Cl(r) = 0.470587

Time = 59

smoothSolver:  Solving for Ux, Initial residual = 0.00164824, Final residual = 9.34845e-06, No Iterations 10
smoothSolver:  Solving for Uy, Initial residual = 0.00417766, Final residual = 2.42059e-05, No Iterations 10
DICPBiCGStab:  Solving for p, Initial residual = 0.0272025, Final residual = 0.000260086, No Iterations 21
DICPBiCGStab:  Solving for p, Initial residual = 0.0022449, Final residual = 2.09276e-05, No Iterations 47
DICPBiCGStab:  Solving for p, Initial residual = 0.000672956, Final residual = 9.51074e-06, No Iterations 54
time step continuity errors : sum local = 2.6265e-06, global = 2.25732e-06, cumulative = -0.000159443
smoothSolver:  Solving for nuTilda, Initial residual = 0.000914258, Final residual = 6.65363e-06, No Iterations 8
bounding nuTilda, min: -0.000181816 max: 0.0201866 average: 0.000472809
ExecutionTime = 15 s  ClockTime = 15 s

forceCoeffs forceCoeffs write:
    Cm    = 0.0238583
    Cd    = 0.18121
    Cl    = 0.994797
    Cl(f) = 0.521257
    Cl(r) = 0.47354

Time = 60

smoothSolver:  Solving for Ux, Initial residual = 0.00163205, Final residual = 9.20323e-06, No Iterations 10
smoothSolver:  Solving for Uy, Initial residual = 0.00419462, Final residual = 2.4016e-05, No Iterations 10
DICPBiCGStab:  Solving for p, Initial residual = 0.0258688, Final residual = 0.00025572, No Iterations 20
DICPBiCGStab:  Solving for p, Initial residual = 0.00217973, Final residual = 1.99193e-05, No Iterations 46
DICPBiCGStab:  Solving for p, Initial residual = 0.000662934, Final residual = 9.96127e-06, No Iterations 57
time step continuity errors : sum local = 2.78006e-06, global = 2.19141e-06, cumulative = -0.000157252
smoothSolver:  Solving for nuTilda, Initial residual = 0.000910666, Final residual = 6.62713e-06, No Iterations 8
bounding nuTilda, min: -0.000159429 max: 0.0204416 average: 0.000480408
ExecutionTime = 15.2 s  ClockTime = 15 s

forceCoeffs forceCoeffs write:
    Cm    = 0.0225909
    Cd    = 0.180961
    Cl    = 0.997181
    Cl(f) = 0.521181
    Cl(r) = 0.476

Time = 61

smoothSolver:  Solving for Ux, Initial residual = 0.00161342, Final residual = 9.06291e-06, No Iterations 10
smoothSolver:  Solving for Uy, Initial residual = 0.00421972, Final residual = 2.38494e-05, No Iterations 10
DICPBiCGStab:  Solving for p, Initial residual = 0.0246239, Final residual = 0.000219238, No Iterations 21
DICPBiCGStab:  Solving for p, Initial residual = 0.00205864, Final residual = 1.98707e-05, No Iterations 45
DICPBiCGStab:  Solving for p, Initial residual = 0.000640228, Final residual = 5.99442e-06, No Iterations 73
time step continuity errors : sum local = 1.68888e-06, global = -1.54659e-07, cumulative = -0.000157407
smoothSolver:  Solving for nuTilda, Initial residual = 0.000907833, Final residual = 6.60434e-06, No Iterations 8
bounding nuTilda, min: -0.000176966 max: 0.0207443 average: 0.000488067
ExecutionTime = 15.43 s  ClockTime = 16 s

forceCoeffs forceCoeffs write:
    Cm    = 0.0220528
    Cd    = 0.180618
    Cl    = 0.999734
    Cl(f) = 0.52192
    Cl(r) = 0.477814

Time = 62

smoothSolver:  Solving for Ux, Initial residual = 0.0015957, Final residual = 8.9408e-06, No Iterations 10
smoothSolver:  Solving for Uy, Initial residual = 0.00424865, Final residual = 2.37466e-05, No Iterations 10
DICPBiCGStab:  Solving for p, Initial residual = 0.0232905, Final residual = 0.00020615, No Iterations 36
DICPBiCGStab:  Solving for p, Initial residual = 0.00190234, Final residual = 1.81465e-05, No Iterations 45
DICPBiCGStab:  Solving for p, Initial residual = 0.000595338, Final residual = 9.96177e-06, No Iterations 41
time step continuity errors : sum local = 2.83921e-06, global = 2.60589e-06, cumulative = -0.000154801
smoothSolver:  Solving for nuTilda, Initial residual = 0.000904666, Final residual = 6.58625e-06, No Iterations 8
bounding nuTilda, min: -0.000150146 max: 0.0210321 average: 0.000495798
ExecutionTime = 15.64 s  ClockTime = 16 s

forceCoeffs forceCoeffs write:
    Cm    = 0.0224566
    Cd    = 0.180952
    Cl    = 1.00489
    Cl(f) = 0.524903
    Cl(r) = 0.47999

Time = 63

smoothSolver:  Solving for Ux, Initial residual = 0.00157763, Final residual = 8.83904e-06, No Iterations 10
smoothSolver:  Solving for Uy, Initial residual = 0.00427315, Final residual = 2.36479e-05, No Iterations 10
DICPBiCGStab:  Solving for p, Initial residual = 0.0220831, Final residual = 0.000219628, No Iterations 21
DICPBiCGStab:  Solving for p, Initial residual = 0.00182457, Final residual = 1.74214e-05, No Iterations 55
DICPBiCGStab:  Solving for p, Initial residual = 0.000569275, Final residual = 9.23252e-06, No Iterations 52
time step continuity errors : sum local = 2.65782e-06, global = 1.34392e-06, cumulative = -0.000153457
smoothSolver:  Solving for nuTilda, Initial residual = 0.000902957, Final residual = 6.5653e-06, No Iterations 8
bounding nuTilda, min: -0.00016903 max: 0.0213056 average: 0.000503606
ExecutionTime = 15.86 s  ClockTime = 16 s

forceCoeffs forceCoeffs write:
    Cm    = 0.0237315
    Cd    = 0.181917
    Cl    = 1.01217
    Cl(f) = 0.529817
    Cl(r) = 0.482354

Time = 64

smoothSolver:  Solving for Ux, Initial residual = 0.00156068, Final residual = 8.73853e-06, No Iterations 10
smoothSolver:  Solving for Uy, Initial residual = 0.00429139, Final residual = 2.35009e-05, No Iterations 10
DICPBiCGStab:  Solving for p, Initial residual = 0.0210157, Final residual = 0.000135788, No Iterations 26
DICPBiCGStab:  Solving for p, Initial residual = 0.00169602, Final residual = 1.69284e-05, No Iterations 49
DICPBiCGStab:  Solving for p, Initial residual = 0.000551623, Final residual = 9.26943e-06, No Iterations 55
time step continuity errors : sum local = 2.69212e-06, global = 1.0176e-06, cumulative = -0.000152439
smoothSolver:  Solving for nuTilda, Initial residual = 0.000900747, Final residual = 6.54217e-06, No Iterations 8
bounding nuTilda, min: -0.000166946 max: 0.0215748 average: 0.000511492
ExecutionTime = 16.08 s  ClockTime = 16 s

forceCoeffs forceCoeffs write:
    Cm    = 0.0249164
    Cd    = 0.18295
    Cl    = 1.01927
    Cl(f) = 0.534553
    Cl(r) = 0.48472

Time = 65

smoothSolver:  Solving for Ux, Initial residual = 0.00154406, Final residual = 8.63751e-06, No Iterations 10
smoothSolver:  Solving for Uy, Initial residual = 0.00431077, Final residual = 2.333e-05, No Iterations 10
DICPBiCGStab:  Solving for p, Initial residual = 0.0201579, Final residual = 0.000183752, No Iterations 22
DICPBiCGStab:  Solving for p, Initial residual = 0.00165975, Final residual = 1.65872e-05, No Iterations 46
DICPBiCGStab:  Solving for p, Initial residual = 0.000545846, Final residual = 9.9253e-06, No Iterations 43
time step continuity errors : sum local = 2.90449e-06, global = 2.31519e-06, cumulative = -0.000150124
smoothSolver:  Solving for nuTilda, Initial residual = 0.000899139, Final residual = 6.51614e-06, No Iterations 8
bounding nuTilda, min: -0.000162648 max: 0.0218853 average: 0.000519458
ExecutionTime = 16.27 s  ClockTime = 16 s

forceCoeffs forceCoeffs write:
    Cm    = 0.0249854
    Cd    = 0.183197
    Cl    = 1.02287
    Cl(f) = 0.53642
    Cl(r) = 0.486449

Time = 66

smoothSolver:  Solving for Ux, Initial residual = 0.0015267, Final residual = 8.54548e-06, No Iterations 10
smoothSolver:  Solving for Uy, Initial residual = 0.00433337, Final residual = 2.32353e-05, No Iterations 10
DICPBiCGStab:  Solving for p, Initial residual = 0.0193651, Final residual = 0.000140602, No Iterations 33
DICPBiCGStab:  Solving for p, Initial residual = 0.00152423, Final residual = 1.50126e-05, No Iterations 64
DICPBiCGStab:  Solving for p, Initial residual = 0.000535062, Final residual = 9.59862e-06, No Iterations 42
time step continuity errors : sum local = 2.87189e-06, global = 2.0753e-06, cumulative = -0.000148049
smoothSolver:  Solving for nuTilda, Initial residual = 0.000897871, Final residual = 6.48862e-06, No Iterations 8
bounding nuTilda, min: -0.000163938 max: 0.0221826 average: 0.000527498
ExecutionTime = 16.48 s  ClockTime = 17 s

forceCoeffs forceCoeffs write:
    Cm    = 0.023988
    Cd    = 0.183182
    Cl    = 1.02556
    Cl(f) = 0.536769
    Cl(r) = 0.488793

Time = 67

smoothSolver:  Solving for Ux, Initial residual = 0.00151028, Final residual = 8.43819e-06, No Iterations 10
smoothSolver:  Solving for Uy, Initial residual = 0.00435322, Final residual = 2.31666e-05, No Iterations 10
DICPBiCGStab:  Solving for p, Initial residual = 0.0185359, Final residual = 0.000175309, No Iterations 20
DICPBiCGStab:  Solving for p, Initial residual = 0.00148137, Final residual = 1.4015e-05, No Iterations 73
DICPBiCGStab:  Solving for p, Initial residual = 0.000497556, Final residual = 9.80549e-06, No Iterations 67
time step continuity errors : sum local = 2.96549e-06, global = 3.05482e-07, cumulative = -0.000147743
smoothSolver:  Solving for nuTilda, Initial residual = 0.000897346, Final residual = 6.4565e-06, No Iterations 8
bounding nuTilda, min: -0.000174179 max: 0.0224674 average: 0.000535626
ExecutionTime = 16.7 s  ClockTime = 17 s

forceCoeffs forceCoeffs write:
    Cm    = 0.0223487
    Cd    = 0.182918
    Cl    = 1.02752
    Cl(f) = 0.536111
    Cl(r) = 0.491414

Time = 68

smoothSolver:  Solving for Ux, Initial residual = 0.0014931, Final residual = 8.31528e-06, No Iterations 10
smoothSolver:  Solving for Uy, Initial residual = 0.00437248, Final residual = 2.31174e-05, No Iterations 10
DICPBiCGStab:  Solving for p, Initial residual = 0.0175467, Final residual = 0.000174657, No Iterations 19
DICPBiCGStab:  Solving for p, Initial residual = 0.00138597, Final residual = 1.32385e-05, No Iterations 62
DICPBiCGStab:  Solving for p, Initial residual = 0.00047144, Final residual = 8.66723e-06, No Iterations 42
time step continuity errors : sum local = 2.63704e-06, global = 1.99263e-06, cumulative = -0.000145751
smoothSolver:  Solving for nuTilda, Initial residual = 0.00089741, Final residual = 6.42417e-06, No Iterations 8
bounding nuTilda, min: -0.000157429 max: 0.0227495 average: 0.000543832
ExecutionTime = 16.91 s  ClockTime = 17 s

forceCoeffs forceCoeffs write:
    Cm    = 0.0206617
    Cd    = 0.182594
    Cl    = 1.02952
    Cl(f) = 0.53542
    Cl(r) = 0.494096

Time = 69

smoothSolver:  Solving for Ux, Initial residual = 0.00147638, Final residual = 8.198e-06, No Iterations 10
smoothSolver:  Solving for Uy, Initial residual = 0.00439277, Final residual = 2.30995e-05, No Iterations 10
DICPBiCGStab:  Solving for p, Initial residual = 0.0166837, Final residual = 0.000111459, No Iterations 23
DICPBiCGStab:  Solving for p, Initial residual = 0.00129117, Final residual = 1.19391e-05, No Iterations 46
DICPBiCGStab:  Solving for p, Initial residual = 0.000456866, Final residual = 9.01892e-06, No Iterations 43
time step continuity errors : sum local = 2.75798e-06, global = 2.13019e-06, cumulative = -0.00014362
smoothSolver:  Solving for nuTilda, Initial residual = 0.000897901, Final residual = 6.39426e-06, No Iterations 8
bounding nuTilda, min: -0.000156925 max: 0.0230413 average: 0.000552114
ExecutionTime = 17.11 s  ClockTime = 17 s

forceCoeffs forceCoeffs write:
    Cm    = 0.019835
    Cd    = 0.182293
    Cl    = 1.03205
    Cl(f) = 0.53586
    Cl(r) = 0.49619

Time = 70

smoothSolver:  Solving for Ux, Initial residual = 0.00145956, Final residual = 8.08454e-06, No Iterations 10
smoothSolver:  Solving for Uy, Initial residual = 0.00441395, Final residual = 2.30988e-05, No Iterations 10
DICPBiCGStab:  Solving for p, Initial residual = 0.0159753, Final residual = 0.000130877, No Iterations 27
DICPBiCGStab:  Solving for p, Initial residual = 0.00126362, Final residual = 1.05088e-05, No Iterations 79
DICPBiCGStab:  Solving for p, Initial residual = 0.000451827, Final residual = 9.37324e-06, No Iterations 18
time step continuity errors : sum local = 2.92241e-06, global = 1.84917e-06, cumulative = -0.000141771
smoothSolver:  Solving for nuTilda, Initial residual = 0.000899641, Final residual = 6.36981e-06, No Iterations 8
bounding nuTilda, min: -0.000132789 max: 0.0233506 average: 0.000560479
ExecutionTime = 17.31 s  ClockTime = 18 s

forceCoeffs forceCoeffs write:
    Cm    = 0.0203888
    Cd    = 0.182573
    Cl    = 1.03746
    Cl(f) = 0.539118
    Cl(r) = 0.498341

Time = 71

smoothSolver:  Solving for Ux, Initial residual = 0.00144329, Final residual = 7.97252e-06, No Iterations 10
smoothSolver:  Solving for Uy, Initial residual = 0.00443021, Final residual = 2.30509e-05, No Iterations 10
DICPBiCGStab:  Solving for p, Initial residual = 0.0153894, Final residual = 0.000152428, No Iterations 21
DICPBiCGStab:  Solving for p, Initial residual = 0.00123355, Final residual = 1.21179e-05, No Iterations 87
DICPBiCGStab:  Solving for p, Initial residual = 0.000445552, Final residual = 7.31197e-06, No Iterations 44
time step continuity errors : sum local = 2.29646e-06, global = 4.83846e-07, cumulative = -0.000141287
smoothSolver:  Solving for nuTilda, Initial residual = 0.000901173, Final residual = 6.35508e-06, No Iterations 8
bounding nuTilda, min: -0.000160213 max: 0.0236486 average: 0.000568912
ExecutionTime = 17.55 s  ClockTime = 18 s

forceCoeffs forceCoeffs write:
    Cm    = 0.0216516
    Cd    = 0.18344
    Cl    = 1.04488
    Cl(f) = 0.54409
    Cl(r) = 0.500787

Time = 72

smoothSolver:  Solving for Ux, Initial residual = 0.00142863, Final residual = 7.86977e-06, No Iterations 10
smoothSolver:  Solving for Uy, Initial residual = 0.00444261, Final residual = 2.29616e-05, No Iterations 10
DICPBiCGStab:  Solving for p, Initial residual = 0.0147265, Final residual = 0.000140681, No Iterations 27
DICPBiCGStab:  Solving for p, Initial residual = 0.00115841, Final residual = 1.13177e-05, No Iterations 75
DICPBiCGStab:  Solving for p, Initial residual = 0.000420126, Final residual = 9.81985e-06, No Iterations 27
time step continuity errors : sum local = 3.12307e-06, global = 1.74112e-06, cumulative = -0.000139546
smoothSolver:  Solving for nuTilda, Initial residual = 0.000904417, Final residual = 6.35182e-06, No Iterations 8
bounding nuTilda, min: -0.000159113 max: 0.0239447 average: 0.00057742
ExecutionTime = 17.75 s  ClockTime = 18 s

forceCoeffs forceCoeffs write:
    Cm    = 0.0228088
    Cd    = 0.184134
    Cl    = 1.05139
    Cl(f) = 0.548503
    Cl(r) = 0.502885

Time = 73

smoothSolver:  Solving for Ux, Initial residual = 0.00141357, Final residual = 7.78034e-06, No Iterations 10
smoothSolver:  Solving for Uy, Initial residual = 0.00445758, Final residual = 2.2884e-05, No Iterations 10
DICPBiCGStab:  Solving for p, Initial residual = 0.0140665, Final residual = 0.000134928, No Iterations 22
DICPBiCGStab:  Solving for p, Initial residual = 0.00109066, Final residual = 1.06272e-05, No Iterations 60
DICPBiCGStab:  Solving for p, Initial residual = 0.000393284, Final residual = 9.48533e-06, No Iterations 39
time step continuity errors : sum local = 3.02836e-06, global = 1.77686e-06, cumulative = -0.000137769
smoothSolver:  Solving for nuTilda, Initial residual = 0.00090754, Final residual = 6.35685e-06, No Iterations 8
bounding nuTilda, min: -0.000155745 max: 0.0242372 average: 0.000585999
ExecutionTime = 17.96 s  ClockTime = 18 s

forceCoeffs forceCoeffs write:
    Cm    = 0.0230455
    Cd    = 0.184474
    Cl    = 1.05612
    Cl(f) = 0.551106
    Cl(r) = 0.505015

Time = 74

smoothSolver:  Solving for Ux, Initial residual = 0.00139806, Final residual = 7.69276e-06, No Iterations 10
smoothSolver:  Solving for Uy, Initial residual = 0.00446821, Final residual = 2.28192e-05, No Iterations 10
DICPBiCGStab:  Solving for p, Initial residual = 0.0134855, Final residual = 0.00010763, No Iterations 29
DICPBiCGStab:  Solving for p, Initial residual = 0.00103657, Final residual = 8.70918e-06, No Iterations 87
DICPBiCGStab:  Solving for p, Initial residual = 0.000384554, Final residual = 9.9535e-06, No Iterations 19
time step continuity errors : sum local = 3.24085e-06, global = 1.12041e-06, cumulative = -0.000136649
smoothSolver:  Solving for nuTilda, Initial residual = 0.000912234, Final residual = 6.36908e-06, No Iterations 8
bounding nuTilda, min: -0.000156155 max: 0.0245201 average: 0.000594646
ExecutionTime = 18.17 s  ClockTime = 18 s

forceCoeffs forceCoeffs write:
    Cm    = 0.022349
    Cd    = 0.184571
    Cl    = 1.05985
    Cl(f) = 0.552275
    Cl(r) = 0.507577

Time = 75

smoothSolver:  Solving for Ux, Initial residual = 0.00138275, Final residual = 7.59542e-06, No Iterations 10
smoothSolver:  Solving for Uy, Initial residual = 0.00447336, Final residual = 2.2757e-05, No Iterations 10
DICPBiCGStab:  Solving for p, Initial residual = 0.0130263, Final residual = 0.000129606, No Iterations 30
DICPBiCGStab:  Solving for p, Initial residual = 0.00103796, Final residual = 9.72335e-06, No Iterations 103
DICPBiCGStab:  Solving for p, Initial residual = 0.000382123, Final residual = 9.89693e-06, No Iterations 20
time step continuity errors : sum local = 3.26313e-06, global = 2.11937e-07, cumulative = -0.000136437
smoothSolver:  Solving for nuTilda, Initial residual = 0.0009178, Final residual = 6.3871e-06, No Iterations 8
bounding nuTilda, min: -0.000134734 max: 0.0248304 average: 0.000603361
ExecutionTime = 18.38 s  ClockTime = 19 s

forceCoeffs forceCoeffs write:
    Cm    = 0.0208821
    Cd    = 0.184349
    Cl    = 1.06234
    Cl(f) = 0.552053
    Cl(r) = 0.510289

Time = 76

smoothSolver:  Solving for Ux, Initial residual = 0.00136737, Final residual = 7.49407e-06, No Iterations 10
smoothSolver:  Solving for Uy, Initial residual = 0.00448173, Final residual = 2.2735e-05, No Iterations 10
DICPBiCGStab:  Solving for p, Initial residual = 0.0125902, Final residual = 0.000104698, No Iterations 23
DICPBiCGStab:  Solving for p, Initial residual = 0.000985177, Final residual = 9.6001e-06, No Iterations 61
DICPBiCGStab:  Solving for p, Initial residual = 0.000373518, Final residual = 9.90759e-06, No Iterations 18
time step continuity errors : sum local = 3.25116e-06, global = 2.32817e-06, cumulative = -0.000134109
smoothSolver:  Solving for nuTilda, Initial residual = 0.000924297, Final residual = 6.41047e-06, No Iterations 8
bounding nuTilda, min: -0.000134373 max: 0.0251376 average: 0.000612138
ExecutionTime = 18.56 s  ClockTime = 19 s

forceCoeffs forceCoeffs write:
    Cm    = 0.0191777
    Cd    = 0.183782
    Cl    = 1.06324
    Cl(f) = 0.550796
    Cl(r) = 0.512441

Time = 77

smoothSolver:  Solving for Ux, Initial residual = 0.00135134, Final residual = 7.40263e-06, No Iterations 10
smoothSolver:  Solving for Uy, Initial residual = 0.00449594, Final residual = 2.27651e-05, No Iterations 10
DICPBiCGStab:  Solving for p, Initial residual = 0.0121397, Final residual = 0.000113153, No Iterations 27
DICPBiCGStab:  Solving for p, Initial residual = 0.000939634, Final residual = 8.64157e-06, No Iterations 93
DICPBiCGStab:  Solving for p, Initial residual = 0.000354475, Final residual = 9.88628e-06, No Iterations 19
time step continuity errors : sum local = 3.28801e-06, global = 2.33102e-06, cumulative = -0.000131778
smoothSolver:  Solving for nuTilda, Initial residual = 0.000931861, Final residual = 6.43984e-06, No Iterations 8
[...]
smoothSolver:  Solving for Uy, Initial residual = 1.02301e-05, Final residual = 3.58474e-06, No Iterations 2
DICPBiCGStab:  Solving for p, Initial residual = 3.36614e-05, Final residual = 9.47122e-06, No Iterations 3
DICPBiCGStab:  Solving for p, Initial residual = 9.52983e-06, Final residual = 9.52983e-06, No Iterations 0
DICPBiCGStab:  Solving for p, Initial residual = 9.52983e-06, Final residual = 9.52983e-06, No Iterations 0
time step continuity errors : sum local = 7.25445e-06, global = -8.44215e-08, cumulative = 0.000506812
smoothSolver:  Solving for nuTilda, Initial residual = 0.00101926, Final residual = 5.50005e-06, No Iterations 6
bounding nuTilda, min: -8.70338e-05 max: 0.00756361 average: 0.00012807
ExecutionTime = 261.1 s  ClockTime = 262 s

forceCoeffs forceCoeffs write:
    Cm    = 0.0106186
    Cd    = 0.024097
    Cl    = 1.66344
    Cl(f) = 0.842338
    Cl(r) = 0.821101

Time = 1983

smoothSolver:  Solving for Ux, Initial residual = 1.04698e-05, Final residual = 3.07274e-06, No Iterations 2
smoothSolver:  Solving for Uy, Initial residual = 9.05885e-06, Final residual = 9.05885e-06, No Iterations 0
DICPBiCGStab:  Solving for p, Initial residual = 2.28731e-05, Final residual = 9.73327e-06, No Iterations 2
DICPBiCGStab:  Solving for p, Initial residual = 9.76884e-06, Final residual = 9.76884e-06, No Iterations 0
DICPBiCGStab:  Solving for p, Initial residual = 9.76884e-06, Final residual = 9.76884e-06, No Iterations 0
time step continuity errors : sum local = 7.43632e-06, global = -4.87582e-08, cumulative = 0.000506763
smoothSolver:  Solving for nuTilda, Initial residual = 0.000993152, Final residual = 5.45436e-06, No Iterations 6
bounding nuTilda, min: -7.75168e-05 max: 0.00756338 average: 0.000128066
ExecutionTime = 261.18 s  ClockTime = 262 s

forceCoeffs forceCoeffs write:
    Cm    = 0.0106183
    Cd    = 0.0240944
    Cl    = 1.66345
    Cl(f) = 0.842342
    Cl(r) = 0.821105

Time = 1984

smoothSolver:  Solving for Ux, Initial residual = 1.02616e-05, Final residual = 3.01912e-06, No Iterations 2
smoothSolver:  Solving for Uy, Initial residual = 9.5256e-06, Final residual = 9.5256e-06, No Iterations 0
DICPBiCGStab:  Solving for p, Initial residual = 2.8474e-05, Final residual = 9.82949e-06, No Iterations 2
DICPBiCGStab:  Solving for p, Initial residual = 9.85689e-06, Final residual = 9.85689e-06, No Iterations 0
DICPBiCGStab:  Solving for p, Initial residual = 9.85689e-06, Final residual = 9.85689e-06, No Iterations 0
time step continuity errors : sum local = 7.50339e-06, global = 2.96918e-08, cumulative = 0.000506793
smoothSolver:  Solving for nuTilda, Initial residual = 0.00100678, Final residual = 5.56063e-06, No Iterations 6
bounding nuTilda, min: -7.69484e-05 max: 0.00756315 average: 0.000128066
ExecutionTime = 261.27 s  ClockTime = 262 s

forceCoeffs forceCoeffs write:
    Cm    = 0.0106194
    Cd    = 0.0240929
    Cl    = 1.66345
    Cl(f) = 0.842346
    Cl(r) = 0.821108

Time = 1985

smoothSolver:  Solving for Ux, Initial residual = 9.6667e-06, Final residual = 9.6667e-06, No Iterations 0
smoothSolver:  Solving for Uy, Initial residual = 1.0134e-05, Final residual = 3.58882e-06, No Iterations 2
DICPBiCGStab:  Solving for p, Initial residual = 3.37476e-05, Final residual = 9.51825e-06, No Iterations 3
DICPBiCGStab:  Solving for p, Initial residual = 9.585e-06, Final residual = 9.585e-06, No Iterations 0
DICPBiCGStab:  Solving for p, Initial residual = 9.585e-06, Final residual = 9.585e-06, No Iterations 0
time step continuity errors : sum local = 7.29675e-06, global = 4.11566e-08, cumulative = 0.000506834
smoothSolver:  Solving for nuTilda, Initial residual = 0.00100533, Final residual = 5.64124e-06, No Iterations 6
bounding nuTilda, min: -8.69459e-05 max: 0.00756292 average: 0.000128062
ExecutionTime = 261.34 s  ClockTime = 263 s

forceCoeffs forceCoeffs write:
    Cm    = 0.0106178
    Cd    = 0.0240886
    Cl    = 1.66347
    Cl(f) = 0.842355
    Cl(r) = 0.821119

Time = 1986

smoothSolver:  Solving for Ux, Initial residual = 1.04443e-05, Final residual = 3.07944e-06, No Iterations 2
smoothSolver:  Solving for Uy, Initial residual = 9.04473e-06, Final residual = 9.04473e-06, No Iterations 0
DICPBiCGStab:  Solving for p, Initial residual = 2.29401e-05, Final residual = 9.96923e-06, No Iterations 2
DICPBiCGStab:  Solving for p, Initial residual = 1.00068e-05, Final residual = 9.41825e-06, No Iterations 7
DICPBiCGStab:  Solving for p, Initial residual = 9.95678e-06, Final residual = 9.95678e-06, No Iterations 0
time step continuity errors : sum local = 7.58726e-06, global = 5.89375e-07, cumulative = 0.000507423
smoothSolver:  Solving for nuTilda, Initial residual = 0.00101559, Final residual = 5.51993e-06, No Iterations 6
bounding nuTilda, min: -7.69613e-05 max: 0.0075627 average: 0.000128065
ExecutionTime = 261.44 s  ClockTime = 263 s

forceCoeffs forceCoeffs write:
    Cm    = 0.0106247
    Cd    = 0.0240506
    Cl    = 1.66378
    Cl(f) = 0.842516
    Cl(r) = 0.821266

Time = 1987

smoothSolver:  Solving for Ux, Initial residual = 1.14496e-05, Final residual = 3.07751e-06, No Iterations 2
smoothSolver:  Solving for Uy, Initial residual = 1.00765e-05, Final residual = 3.58303e-06, No Iterations 2
DICPBiCGStab:  Solving for p, Initial residual = 2.27735e-05, Final residual = 9.77285e-06, No Iterations 3
DICPBiCGStab:  Solving for p, Initial residual = 9.84997e-06, Final residual = 9.84997e-06, No Iterations 0
DICPBiCGStab:  Solving for p, Initial residual = 9.84997e-06, Final residual = 9.84997e-06, No Iterations 0
time step continuity errors : sum local = 7.50063e-06, global = 5.45586e-07, cumulative = 0.000507969
smoothSolver:  Solving for nuTilda, Initial residual = 0.000984283, Final residual = 5.54471e-06, No Iterations 6
bounding nuTilda, min: -7.74282e-05 max: 0.00756248 average: 0.000128058
ExecutionTime = 261.52 s  ClockTime = 263 s

forceCoeffs forceCoeffs write:
    Cm    = 0.0106254
    Cd    = 0.0240575
    Cl    = 1.66379
    Cl(f) = 0.84252
    Cl(r) = 0.82127

Time = 1988

smoothSolver:  Solving for Ux, Initial residual = 1.11812e-05, Final residual = 3.0516e-06, No Iterations 2
smoothSolver:  Solving for Uy, Initial residual = 9.13004e-06, Final residual = 9.13004e-06, No Iterations 0
DICPBiCGStab:  Solving for p, Initial residual = 3.13436e-05, Final residual = 9.44822e-06, No Iterations 4
DICPBiCGStab:  Solving for p, Initial residual = 9.71496e-06, Final residual = 9.71496e-06, No Iterations 0
DICPBiCGStab:  Solving for p, Initial residual = 9.71496e-06, Final residual = 9.71496e-06, No Iterations 0
time step continuity errors : sum local = 7.39806e-06, global = 7.6963e-07, cumulative = 0.000508739
smoothSolver:  Solving for nuTilda, Initial residual = 0.00101787, Final residual = 5.49295e-06, No Iterations 6
bounding nuTilda, min: -8.69368e-05 max: 0.00756227 average: 0.000128061
ExecutionTime = 261.6 s  ClockTime = 263 s

forceCoeffs forceCoeffs write:
    Cm    = 0.0106329
    Cd    = 0.0240787
    Cl    = 1.66381
    Cl(f) = 0.842538
    Cl(r) = 0.821272

Time = 1989

smoothSolver:  Solving for Ux, Initial residual = 1.01877e-05, Final residual = 2.71469e-06, No Iterations 2
smoothSolver:  Solving for Uy, Initial residual = 9.48367e-06, Final residual = 9.48367e-06, No Iterations 0
DICPBiCGStab:  Solving for p, Initial residual = 3.36631e-05, Final residual = 9.16573e-06, No Iterations 4
DICPBiCGStab:  Solving for p, Initial residual = 9.46708e-06, Final residual = 9.46708e-06, No Iterations 0
DICPBiCGStab:  Solving for p, Initial residual = 9.46708e-06, Final residual = 9.46708e-06, No Iterations 0
time step continuity errors : sum local = 7.20938e-06, global = 8.08904e-07, cumulative = 0.000509547
smoothSolver:  Solving for nuTilda, Initial residual = 0.000993725, Final residual = 5.4528e-06, No Iterations 6
bounding nuTilda, min: -7.74535e-05 max: 0.00756206 average: 0.000128057
ExecutionTime = 261.69 s  ClockTime = 263 s

forceCoeffs forceCoeffs write:
    Cm    = 0.0106425
    Cd    = 0.0240952
    Cl    = 1.66383
    Cl(f) = 0.842559
    Cl(r) = 0.821274

Time = 1990

smoothSolver:  Solving for Ux, Initial residual = 9.8525e-06, Final residual = 9.8525e-06, No Iterations 0
smoothSolver:  Solving for Uy, Initial residual = 1.01545e-05, Final residual = 3.63937e-06, No Iterations 2
DICPBiCGStab:  Solving for p, Initial residual = 3.96352e-05, Final residual = 9.6123e-06, No Iterations 6
DICPBiCGStab:  Solving for p, Initial residual = 9.86432e-06, Final residual = 9.86432e-06, No Iterations 0
DICPBiCGStab:  Solving for p, Initial residual = 9.86432e-06, Final residual = 9.86432e-06, No Iterations 0
time step continuity errors : sum local = 7.51224e-06, global = 8.83557e-07, cumulative = 0.000510431
smoothSolver:  Solving for nuTilda, Initial residual = 0.00100528, Final residual = 5.55178e-06, No Iterations 6
bounding nuTilda, min: -7.69176e-05 max: 0.00756185 average: 0.000128058
ExecutionTime = 261.76 s  ClockTime = 263 s

forceCoeffs forceCoeffs write:
    Cm    = 0.0106431
    Cd    = 0.0241123
    Cl    = 1.66388
    Cl(f) = 0.842584
    Cl(r) = 0.821298

Time = 1991

smoothSolver:  Solving for Ux, Initial residual = 1.1817e-05, Final residual = 3.00193e-06, No Iterations 2
smoothSolver:  Solving for Uy, Initial residual = 9.06154e-06, Final residual = 9.06154e-06, No Iterations 0
DICPBiCGStab:  Solving for p, Initial residual = 2.8067e-05, Final residual = 9.92721e-06, No Iterations 2
DICPBiCGStab:  Solving for p, Initial residual = 9.9568e-06, Final residual = 9.9568e-06, No Iterations 0
DICPBiCGStab:  Solving for p, Initial residual = 9.9568e-06, Final residual = 9.9568e-06, No Iterations 0
time step continuity errors : sum local = 7.58231e-06, global = 8.98658e-07, cumulative = 0.00051133
smoothSolver:  Solving for nuTilda, Initial residual = 0.00100286, Final residual = 5.62491e-06, No Iterations 6
bounding nuTilda, min: -8.68581e-05 max: 0.00756165 average: 0.000128054
ExecutionTime = 261.85 s  ClockTime = 263 s

forceCoeffs forceCoeffs write:
    Cm    = 0.0106429
    Cd    = 0.0241116
    Cl    = 1.66389
    Cl(f) = 0.842586
    Cl(r) = 0.8213

Time = 1992

smoothSolver:  Solving for Ux, Initial residual = 1.17524e-05, Final residual = 3.04373e-06, No Iterations 2
smoothSolver:  Solving for Uy, Initial residual = 9.49719e-06, Final residual = 9.49719e-06, No Iterations 0
DICPBiCGStab:  Solving for p, Initial residual = 3.57001e-05, Final residual = 9.69396e-06, No Iterations 8
DICPBiCGStab:  Solving for p, Initial residual = 1.0054e-05, Final residual = 8.84592e-06, No Iterations 1
DICPBiCGStab:  Solving for p, Initial residual = 8.89314e-06, Final residual = 8.89314e-06, No Iterations 0
time step continuity errors : sum local = 6.77281e-06, global = 1.14861e-06, cumulative = 0.000512478
smoothSolver:  Solving for nuTilda, Initial residual = 0.00101432, Final residual = 5.51253e-06, No Iterations 6
bounding nuTilda, min: -7.69167e-05 max: 0.00756145 average: 0.000128057
ExecutionTime = 261.94 s  ClockTime = 263 s

forceCoeffs forceCoeffs write:
    Cm    = 0.0106551
    Cd    = 0.0241187
    Cl    = 1.66394
    Cl(f) = 0.842623
    Cl(r) = 0.821313

Time = 1993

smoothSolver:  Solving for Ux, Initial residual = 1.10557e-05, Final residual = 2.74287e-06, No Iterations 2
smoothSolver:  Solving for Uy, Initial residual = 1.05676e-05, Final residual = 3.72396e-06, No Iterations 2
DICPBiCGStab:  Solving for p, Initial residual = 2.59256e-05, Final residual = 9.76793e-06, No Iterations 2
DICPBiCGStab:  Solving for p, Initial residual = 9.82957e-06, Final residual = 9.82957e-06, No Iterations 0
DICPBiCGStab:  Solving for p, Initial residual = 9.82957e-06, Final residual = 9.82957e-06, No Iterations 0
time step continuity errors : sum local = 7.48558e-06, global = 1.30422e-06, cumulative = 0.000513782
smoothSolver:  Solving for nuTilda, Initial residual = 0.000984967, Final residual = 5.54516e-06, No Iterations 6
bounding nuTilda, min: -7.73757e-05 max: 0.00756126 average: 0.00012805
ExecutionTime = 262.02 s  ClockTime = 263 s

forceCoeffs forceCoeffs write:
    Cm    = 0.0106557
    Cd    = 0.0241171
    Cl    = 1.66394
    Cl(f) = 0.842625
    Cl(r) = 0.821314

Time = 1994

smoothSolver:  Solving for Ux, Initial residual = 1.11247e-05, Final residual = 2.82388e-06, No Iterations 2
smoothSolver:  Solving for Uy, Initial residual = 9.72609e-06, Final residual = 9.72609e-06, No Iterations 0
DICPBiCGStab:  Solving for p, Initial residual = 3.08164e-05, Final residual = 9.52497e-06, No Iterations 4
DICPBiCGStab:  Solving for p, Initial residual = 9.75912e-06, Final residual = 9.75912e-06, No Iterations 0
DICPBiCGStab:  Solving for p, Initial residual = 9.75912e-06, Final residual = 9.75912e-06, No Iterations 0
time step continuity errors : sum local = 7.43192e-06, global = 1.6555e-06, cumulative = 0.000515438
smoothSolver:  Solving for nuTilda, Initial residual = 0.00101688, Final residual = 5.48528e-06, No Iterations 6
bounding nuTilda, min: -8.69076e-05 max: 0.00756108 average: 0.000128054
ExecutionTime = 262.1 s  ClockTime = 263 s

forceCoeffs forceCoeffs write:
    Cm    = 0.0106601
    Cd    = 0.0241183
    Cl    = 1.66395
    Cl(f) = 0.842633
    Cl(r) = 0.821313

Time = 1995

smoothSolver:  Solving for Ux, Initial residual = 1.02931e-05, Final residual = 2.65351e-06, No Iterations 2
smoothSolver:  Solving for Uy, Initial residual = 1.02e-05, Final residual = 3.62667e-06, No Iterations 2
DICPBiCGStab:  Solving for p, Initial residual = 3.19921e-05, Final residual = 9.64432e-06, No Iterations 5
DICPBiCGStab:  Solving for p, Initial residual = 1.00858e-05, Final residual = 8.39019e-06, No Iterations 1
DICPBiCGStab:  Solving for p, Initial residual = 8.43942e-06, Final residual = 8.43942e-06, No Iterations 0
time step continuity errors : sum local = 6.42697e-06, global = 1.85374e-06, cumulative = 0.000517292
smoothSolver:  Solving for nuTilda, Initial residual = 0.000991917, Final residual = 5.44611e-06, No Iterations 6
bounding nuTilda, min: -7.74219e-05 max: 0.0075609 average: 0.00012805
ExecutionTime = 262.19 s  ClockTime = 263 s

forceCoeffs forceCoeffs write:
    Cm    = 0.0106622
    Cd    = 0.0241143
    Cl    = 1.66395
    Cl(f) = 0.842638
    Cl(r) = 0.821314

Time = 1996

smoothSolver:  Solving for Ux, Initial residual = 1.09442e-05, Final residual = 2.78627e-06, No Iterations 2
smoothSolver:  Solving for Uy, Initial residual = 9.27826e-06, Final residual = 9.27826e-06, No Iterations 0
DICPBiCGStab:  Solving for p, Initial residual = 2.97516e-05, Final residual = 9.83638e-06, No Iterations 3
DICPBiCGStab:  Solving for p, Initial residual = 9.94526e-06, Final residual = 9.94526e-06, No Iterations 0
DICPBiCGStab:  Solving for p, Initial residual = 9.94526e-06, Final residual = 9.94526e-06, No Iterations 0
time step continuity errors : sum local = 7.57368e-06, global = 2.15272e-06, cumulative = 0.000519444
smoothSolver:  Solving for nuTilda, Initial residual = 0.00100465, Final residual = 5.5462e-06, No Iterations 6
bounding nuTilda, min: -7.6896e-05 max: 0.00756073 average: 0.000128051
ExecutionTime = 262.27 s  ClockTime = 263 s

forceCoeffs forceCoeffs write:
    Cm    = 0.0106633
    Cd    = 0.0241134
    Cl    = 1.66395
    Cl(f) = 0.842639
    Cl(r) = 0.821313

Time = 1997

smoothSolver:  Solving for Ux, Initial residual = 1.05713e-05, Final residual = 2.7023e-06, No Iterations 2
smoothSolver:  Solving for Uy, Initial residual = 9.82308e-06, Final residual = 9.82308e-06, No Iterations 0
DICPBiCGStab:  Solving for p, Initial residual = 3.49954e-05, Final residual = 8.86018e-06, No Iterations 4
DICPBiCGStab:  Solving for p, Initial residual = 9.102e-06, Final residual = 9.102e-06, No Iterations 0
DICPBiCGStab:  Solving for p, Initial residual = 9.102e-06, Final residual = 9.102e-06, No Iterations 0
time step continuity errors : sum local = 6.93151e-06, global = 2.18381e-06, cumulative = 0.000521628
smoothSolver:  Solving for nuTilda, Initial residual = 0.00100353, Final residual = 5.62364e-06, No Iterations 6
bounding nuTilda, min: -8.68559e-05 max: 0.00756056 average: 0.000128047
ExecutionTime = 262.34 s  ClockTime = 264 s

forceCoeffs forceCoeffs write:
    Cm    = 0.0106682
    Cd    = 0.0241063
    Cl    = 1.66395
    Cl(f) = 0.842643
    Cl(r) = 0.821307

Time = 1998

smoothSolver:  Solving for Ux, Initial residual = 9.89614e-06, Final residual = 9.89614e-06, No Iterations 0
smoothSolver:  Solving for Uy, Initial residual = 1.06487e-05, Final residual = 3.79008e-06, No Iterations 2
DICPBiCGStab:  Solving for p, Initial residual = 4.04722e-05, Final residual = 9.67821e-06, No Iterations 3
DICPBiCGStab:  Solving for p, Initial residual = 9.77137e-06, Final residual = 9.77137e-06, No Iterations 0
DICPBiCGStab:  Solving for p, Initial residual = 9.77137e-06, Final residual = 9.77137e-06, No Iterations 0
time step continuity errors : sum local = 7.44127e-06, global = 2.17219e-06, cumulative = 0.0005238
smoothSolver:  Solving for nuTilda, Initial residual = 0.00101295, Final residual = 5.52017e-06, No Iterations 6
bounding nuTilda, min: -7.69027e-05 max: 0.0075604 average: 0.00012805
ExecutionTime = 262.42 s  ClockTime = 264 s

forceCoeffs forceCoeffs write:
    Cm    = 0.0106664
    Cd    = 0.024104
    Cl    = 1.66395
    Cl(f) = 0.842642
    Cl(r) = 0.821309

Time = 1999

smoothSolver:  Solving for Ux, Initial residual = 1.09296e-05, Final residual = 2.90966e-06, No Iterations 2
smoothSolver:  Solving for Uy, Initial residual = 9.60411e-06, Final residual = 9.60411e-06, No Iterations 0
DICPBiCGStab:  Solving for p, Initial residual = 2.778e-05, Final residual = 9.73759e-06, No Iterations 3
DICPBiCGStab:  Solving for p, Initial residual = 9.8444e-06, Final residual = 9.8444e-06, No Iterations 0
DICPBiCGStab:  Solving for p, Initial residual = 9.8444e-06, Final residual = 9.8444e-06, No Iterations 0
time step continuity errors : sum local = 7.49685e-06, global = 2.08709e-06, cumulative = 0.000525888
smoothSolver:  Solving for nuTilda, Initial residual = 0.000983177, Final residual = 5.53149e-06, No Iterations 6
bounding nuTilda, min: -7.73551e-05 max: 0.00756024 average: 0.000128044
ExecutionTime = 262.51 s  ClockTime = 264 s

forceCoeffs forceCoeffs write:
    Cm    = 0.0106665
    Cd    = 0.0241006
    Cl    = 1.66395
    Cl(f) = 0.842641
    Cl(r) = 0.821308

Time = 2000

smoothSolver:  Solving for Ux, Initial residual = 1.07551e-05, Final residual = 2.92064e-06, No Iterations 2
smoothSolver:  Solving for Uy, Initial residual = 1.00024e-05, Final residual = 3.5939e-06, No Iterations 2
DICPBiCGStab:  Solving for p, Initial residual = 2.8207e-05, Final residual = 9.71322e-06, No Iterations 4
DICPBiCGStab:  Solving for p, Initial residual = 1.00184e-05, Final residual = 8.299e-06, No Iterations 1
DICPBiCGStab:  Solving for p, Initial residual = 8.29382e-06, Final residual = 8.29382e-06, No Iterations 0
time step continuity errors : sum local = 6.31586e-06, global = 1.72366e-06, cumulative = 0.000527611
smoothSolver:  Solving for nuTilda, Initial residual = 0.00101583, Final residual = 5.48142e-06, No Iterations 6
bounding nuTilda, min: -8.69086e-05 max: 0.00756009 average: 0.000128047
ExecutionTime = 262.67 s  ClockTime = 264 s

forceCoeffs forceCoeffs write:
    Cm    = 0.0106679
    Cd    = 0.0240914
    Cl    = 1.66393
    Cl(f) = 0.842635
    Cl(r) = 0.821299

yPlus yPlus write:
    writing object yPlus
    patch airfoil-l1 y+ : min = 0.893606, max = 32.3569, average = 13.9918
    patch wall-l1 y+ : min = 126.532, max = 136.24, average = 130.238
    patch airfoil-l2 y+ : min = 21.2107, max = 23.7506, average = 23.3419
    patch wall-l2 y+ : min = 103.189, max = 137.489, average = 128.997
    patch wall-h2 y+ : min = 144.378, max = 172.74, average = 158.238
    patch airfoil-h2 y+ : min = 13.0908, max = 31.1702, average = 23.5847
    patch wall-h1 y+ : min = 144.235, max = 144.765, average = 144.361
    patch airfoil-h1 y+ : min = 25.1322, max = 33.1784, average = 28.5066

End

Finalising parallel run
