Making ./cases/airfoil_run case directory
Copying directories from airfoil_template/ to ./cases/airfoil_run:
airfoil_template//system to ... system
airfoil_template//constant to ... constant
airfoil_template//0 to ... 0
Copying scripts from airfoil_template/ to ./cases/airfoil_run:
airfoil_template/Allclean to ... Allclean
/*---------------------------------------------------------------------------*\
  =========                 |
  \\      /  F ield         | OpenFOAM: The Open Source CFD Toolbox
   \\    /   O peration     | Website:  https://openfoam.org
    \\  /    A nd           | Version:  7
     \\/     M anipulation  |
\*---------------------------------------------------------------------------*/
Build  : 7-ca808c8420bf
Exec   : blockMesh
Date   : Dec 19 2019
Time   : 17:30:11
Host   : "iZ6wej1artv0n1hqcx94jpZ"
PID    : 27296
I/O    : uncollated
Case   : /root/OpenFOAM/root-7/run/airfoil_opt/PARSEC_NACA0012/workdir.1/cases/airfoil_run
nProcs : 1
sigFpe : Enabling floating point exception trapping (FOAM_SIGFPE).
fileModificationChecking : Monitoring run-time modified files using timeStampMaster (fileModificationSkew 10)
allowSystemOperations : Allowing user-supplied system call operations

// * * * * * * * * * * * * * * * * * * * * * * * * * * * * * * * * * * * * * //
Create time

Creating block mesh from
    "/root/OpenFOAM/root-7/run/airfoil_opt/PARSEC_NACA0012/workdir.1/cases/airfoil_run/system/blockMeshDict"
Creating block edges
No non-planar block faces defined
Creating topology blocks
Creating topology patches

Creating block mesh topology

Check topology

	Basic statistics
		Number of internal faces : 6
		Number of boundary faces : 24
		Number of defined boundary faces : 24
		Number of undefined boundary faces : 0
	Checking patch -> block consistency

Creating block offsets
Creating merge list .

Creating polyMesh from blockMesh
Creating patches
Creating cells
Creating points with scale 1
    Block 0 cell size :
        i : 0.137196 .. 0.274389 0.132514 .. 0.265121 0.137196 .. 0.274389 0.132514 .. 0.265121 
        j : 0.524796 .. 0.000655995 0.524727 .. 0.000656643 0.524796 .. 0.000655995 0.524727 .. 0.000656643 
        k : 0.01
    Block 1 cell size :
        i : 0.017875 .. 0.010725 0.0178876 .. 0.0103774 0.017875 .. 0.010725 0.0178876 .. 0.0103774 
        j : 0.49444 .. 0.00098888 0.494428 .. 0.000988855 0.49444 .. 0.00098888 0.494428 .. 0.000988855 
        k : 0.01
    Block 2 cell size :
        i : 0.0515721 .. 0.515721
        j : 0.496478 .. 0.000992956
        k : 0.01
    Block 3 cell size :
        i : 0.0515721 .. 0.515721
        j : 0.000992956 .. 0.496478
        k : 0.01
    Block 4 cell size :
        i : 0.0183271 .. 0.0119045 0.0183271 .. 0.0119037 0.0183271 .. 0.0119045 0.0183271 .. 0.0119037 
        j : 0.000988799 .. 0.494399 0.00098874 .. 0.49437 0.000988799 .. 0.494399 0.00098874 .. 0.49437 
        k : 0.01
    Block 5 cell size :
        i : 0.524796 .. 0.000655995 0.524727 .. 0.000656643 0.524796 .. 0.000655995 0.524727 .. 0.000656643 
        j : 0.137196 .. 0.274389 0.132514 .. 0.26512 0.137196 .. 0.274389 0.132514 .. 0.26512 
        k : 0.01

Adding cell zones
    0	b0
    1	b1
    2	b2
    3	b3
    4	b4
    5	b5

Writing polyMesh
----------------
Mesh Information
----------------
  boundingBox: (-14.7701 -15 0) (16 15 0.01)
  nPoints: 185728
  nCells: 92256
  nFaces: 369632
  nInternalFaces: 183904
----------------
Patches
----------------
  patch 0 (start: 183904 size: 119) name: inlet-l
  patch 1 (start: 184023 size: 119) name: airfoil-l1
  patch 2 (start: 184142 size: 22134) name: empty-1
  patch 3 (start: 206276 size: 22134) name: empty-2
  patch 4 (start: 228410 size: 55) name: wall-l1
  patch 5 (start: 228465 size: 55) name: airfoil-l2
  patch 6 (start: 228520 size: 10230) name: empty-3
  patch 7 (start: 238750 size: 10230) name: empty-4
  patch 8 (start: 248980 size: 74) name: wall-l2
  patch 9 (start: 249054 size: 186) name: outlet-l
  patch 10 (start: 249240 size: 13764) name: empty-5
  patch 11 (start: 263004 size: 13764) name: empty-6
  patch 12 (start: 276768 size: 186) name: outlet-h
  patch 13 (start: 276954 size: 74) name: wall-h2
  patch 14 (start: 277028 size: 13764) name: empty-7
  patch 15 (start: 290792 size: 13764) name: empty-8
  patch 16 (start: 304556 size: 55) name: airfoil-h2
  patch 17 (start: 304611 size: 55) name: wall-h1
  patch 18 (start: 304666 size: 10230) name: empty-9
  patch 19 (start: 314896 size: 10230) name: empty-10
  patch 20 (start: 325126 size: 119) name: inlet-h
  patch 21 (start: 325245 size: 119) name: airfoil-h1
  patch 22 (start: 325364 size: 22134) name: empty-11
  patch 23 (start: 347498 size: 22134) name: empty-12

End

/*---------------------------------------------------------------------------*\
  =========                 |
  \\      /  F ield         | OpenFOAM: The Open Source CFD Toolbox
   \\    /   O peration     | Website:  https://openfoam.org
    \\  /    A nd           | Version:  7
     \\/     M anipulation  |
\*---------------------------------------------------------------------------*/
Build  : 7-ca808c8420bf
Exec   : renumberMesh -overwrite
Date   : Dec 19 2019
Time   : 17:30:12
Host   : "iZ6wej1artv0n1hqcx94jpZ"
PID    : 27297
I/O    : uncollated
Case   : /root/OpenFOAM/root-7/run/airfoil_opt/PARSEC_NACA0012/workdir.1/cases/airfoil_run
nProcs : 1
sigFpe : Enabling floating point exception trapping (FOAM_SIGFPE).
fileModificationChecking : Monitoring run-time modified files using timeStampMaster (fileModificationSkew 10)
allowSystemOperations : Allowing user-supplied system call operations

// * * * * * * * * * * * * * * * * * * * * * * * * * * * * * * * * * * * * * //
Create time

Create mesh for time = 0

Mesh size: 92256
Before renumbering :
    band           : 70122
    profile        : 3.33099e+07

Using default renumberMethod.

Selecting renumberMethod CuthillMcKee

Reading geometric fields

Reading volScalarField p
Reading volScalarField nuTilda
Reading volScalarField nut
Reading volVectorField U

After renumbering :
    band           : 373
    profile        : 2.57616e+07

Writing mesh to "constant"

End

/*---------------------------------------------------------------------------*\
  =========                 |
  \\      /  F ield         | OpenFOAM: The Open Source CFD Toolbox
   \\    /   O peration     | Website:  https://openfoam.org
    \\  /    A nd           | Version:  7
     \\/     M anipulation  |
\*---------------------------------------------------------------------------*/
Build  : 7-ca808c8420bf
Exec   : decomposePar
Date   : Dec 19 2019
Time   : 17:30:13
Host   : "iZ6wej1artv0n1hqcx94jpZ"
PID    : 27298
I/O    : uncollated
Case   : /root/OpenFOAM/root-7/run/airfoil_opt/PARSEC_NACA0012/workdir.1/cases/airfoil_run
nProcs : 1
sigFpe : Enabling floating point exception trapping (FOAM_SIGFPE).
fileModificationChecking : Monitoring run-time modified files using timeStampMaster (fileModificationSkew 10)
allowSystemOperations : Allowing user-supplied system call operations

// * * * * * * * * * * * * * * * * * * * * * * * * * * * * * * * * * * * * * //
Create time



Decomposing mesh region0

Create mesh

Calculating distribution of cells
 Foam::decompositionMethod::New 
{
    numberOfSubdomains 12;
    method          scotch;
}

Selecting decompositionMethod scotch

Finished decomposition in 0.13 s

Calculating original mesh data

Distributing cells to processors

Distributing faces to processors

Distributing points to processors

Constructing processor meshes

Processor 0
    Number of cells = 7688
    Number of faces shared with processor 1 = 43
    Number of faces shared with processor 2 = 73
    Number of faces shared with processor 4 = 70
    Number of faces shared with processor 10 = 63
    Number of faces shared with processor 11 = 10
    Number of processor patches = 5
    Number of processor faces = 259
    Number of boundary faces = 15483

Processor 1
    Number of cells = 7644
    Number of faces shared with processor 0 = 43
    Number of faces shared with processor 2 = 113
    Number of faces shared with processor 9 = 70
    Number of faces shared with processor 11 = 78
    Number of processor patches = 4
    Number of processor faces = 304
    Number of boundary faces = 15360

Processor 2
    Number of cells = 7726
    Number of faces shared with processor 0 = 73
    Number of faces shared with processor 1 = 113
    Number of faces shared with processor 3 = 69
    Number of faces shared with processor 4 = 55
    Number of processor patches = 4
    Number of processor faces = 310
    Number of boundary faces = 15514

Processor 3
    Number of cells = 7688
    Number of faces shared with processor 2 = 69
    Number of faces shared with processor 4 = 65
    Number of faces shared with processor 5 = 64
    Number of faces shared with processor 6 = 81
    Number of processor patches = 4
    Number of processor faces = 279
    Number of boundary faces = 15483

Processor 4
    Number of cells = 7631
    Number of faces shared with processor 0 = 70
    Number of faces shared with processor 2 = 55
    Number of faces shared with processor 3 = 65
    Number of faces shared with processor 5 = 127
    Number of processor patches = 4
    Number of processor faces = 317
    Number of boundary faces = 15321

Processor 5
    Number of cells = 7697
    Number of faces shared with processor 3 = 64
    Number of faces shared with processor 4 = 127
    Number of processor patches = 2
    Number of processor faces = 191
    Number of boundary faces = 15585

Processor 6
    Number of cells = 7749
    Number of faces shared with processor 3 = 81
    Number of faces shared with processor 7 = 67
    Number of faces shared with processor 8 = 60
    Number of faces shared with processor 9 = 62
    Number of processor patches = 4
    Number of processor faces = 270
    Number of boundary faces = 15618

Processor 7
    Number of cells = 7688
    Number of faces shared with processor 6 = 67
    Number of faces shared with processor 8 = 126
    Number of processor patches = 2
    Number of processor faces = 193
    Number of boundary faces = 15561

Processor 8
    Number of cells = 7688
    Number of faces shared with processor 6 = 60
    Number of faces shared with processor 7 = 126
    Number of faces shared with processor 9 = 11
    Number of faces shared with processor 10 = 50
    Number of faces shared with processor 11 = 66
    Number of processor patches = 5
    Number of processor faces = 313
    Number of boundary faces = 15437

Processor 9
    Number of cells = 7685
    Number of faces shared with processor 1 = 70
    Number of faces shared with processor 6 = 62
    Number of faces shared with processor 8 = 11
    Number of faces shared with processor 11 = 107
    Number of processor patches = 4
    Number of processor faces = 250
    Number of boundary faces = 15480

Processor 10
    Number of cells = 7684
    Number of faces shared with processor 0 = 63
    Number of faces shared with processor 8 = 50
    Number of faces shared with processor 11 = 149
    Number of processor patches = 3
    Number of processor faces = 262
    Number of boundary faces = 15510

Processor 11
    Number of cells = 7688
    Number of faces shared with processor 0 = 10
    Number of faces shared with processor 1 = 78
    Number of faces shared with processor 8 = 66
    Number of faces shared with processor 9 = 107
    Number of faces shared with processor 10 = 149
    Number of processor patches = 5
    Number of processor faces = 410
    Number of boundary faces = 15376

Number of processor faces = 1679
Max number of cells = 7749 (0.793444% above average 7688)
Max number of processor patches = 5 (30.4348% above average 3.83333)
Max number of faces between processors = 410 (46.5158% above average 279.833)

Time = 0

Processor 0: field transfer
Processor 1: field transfer
Processor 2: field transfer
Processor 3: field transfer
Processor 4: field transfer
Processor 5: field transfer
Processor 6: field transfer
Processor 7: field transfer
Processor 8: field transfer
Processor 9: field transfer
Processor 10: field transfer
Processor 11: field transfer

End

/*---------------------------------------------------------------------------*\
  =========                 |
  \\      /  F ield         | OpenFOAM: The Open Source CFD Toolbox
   \\    /   O peration     | Website:  https://openfoam.org
    \\  /    A nd           | Version:  7
     \\/     M anipulation  |
\*---------------------------------------------------------------------------*/
Build  : 7-ca808c8420bf
Exec   : simpleFoam -parallel
Date   : Dec 19 2019
Time   : 17:30:16
Host   : "iZ6wej1artv0n1hqcx94jpZ"
PID    : 27305
I/O    : uncollated
Case   : /root/OpenFOAM/root-7/run/airfoil_opt/PARSEC_NACA0012/workdir.1/cases/airfoil_run
nProcs : 12
Slaves : 
11
(
"iZ6wej1artv0n1hqcx94jpZ.27306"
"iZ6wej1artv0n1hqcx94jpZ.27307"
"iZ6wej1artv0n1hqcx94jpZ.27308"
"iZ6wej1artv0n1hqcx94jpZ.27309"
"iZ6wej1artv0n1hqcx94jpZ.27310"
"iZ6wej1artv0n1hqcx94jpZ.27311"
"iZ6wej1artv0n1hqcx94jpZ.27312"
"iZ6wej1artv0n1hqcx94jpZ.27313"
"iZ6wej1artv0n1hqcx94jpZ.27314"
"iZ6wej1artv0n1hqcx94jpZ.27315"
"iZ6wej1artv0n1hqcx94jpZ.27316"
)

Pstream initialized with:
    floatTransfer      : 0
    nProcsSimpleSum    : 0
    commsType          : nonBlocking
    polling iterations : 0
sigFpe : Enabling floating point exception trapping (FOAM_SIGFPE).
fileModificationChecking : Monitoring run-time modified files using timeStampMaster (fileModificationSkew 10)
allowSystemOperations : Allowing user-supplied system call operations

// * * * * * * * * * * * * * * * * * * * * * * * * * * * * * * * * * * * * * //
Create time

Create mesh for time = 0


SIMPLE: Convergence criteria found
        p: tolerance 1e-06
        U: tolerance 1e-06
        nuTilda: tolerance 1e-06

Reading field p

Reading field U

Reading/calculating face flux field phi

Selecting incompressible transport model Newtonian
Selecting turbulence model type RAS
Selecting RAS turbulence model SpalartAllmaras
Selecting patchDistMethod meshWave
RAS
{
    RASModel        SpalartAllmaras;
    turbulence      on;
    printCoeffs     on;
    sigmaNut        0.66666;
    kappa           0.41;
    Cb1             0.1355;
    Cb2             0.622;
    Cw2             0.3;
    Cw3             2;
    Cv1             7.1;
    Cs              0.3;
}

No MRF models present

No finite volume options present

Starting time loop

forces forceCoeffs:
    Not including porosity effects
forceCoeffs forceCoeffs:
    Not including porosity effects
Time = 1

smoothSolver:  Solving for Ux, Initial residual = 1, Final residual = 0.00607363, No Iterations 18
smoothSolver:  Solving for Uy, Initial residual = 1, Final residual = 0.00722291, No Iterations 16
DICPBiCGStab:  Solving for p, Initial residual = 1, Final residual = 0.0098005, No Iterations 214
DICPBiCGStab:  Solving for p, Initial residual = 0.233653, Final residual = 0.00145482, No Iterations 166
DICPBiCGStab:  Solving for p, Initial residual = 0.886751, Final residual = 0.0088142, No Iterations 96
time step continuity errors : sum local = 77.4017, global = 3.54461, cumulative = 3.54461
smoothSolver:  Solving for nuTilda, Initial residual = 1, Final residual = 0.00517255, No Iterations 10
ExecutionTime = 0.44 s  ClockTime = 0 s

forceCoeffs forceCoeffs write:
    Cm    = 103741
    Cd    = 3.40833e+07
    Cl    = -177503
    Cl(f) = 14989.2
    Cl(r) = -192492

Time = 2

smoothSolver:  Solving for Ux, Initial residual = 0.879586, Final residual = 0.00459652, No Iterations 12
smoothSolver:  Solving for Uy, Initial residual = 0.873866, Final residual = 0.0046282, No Iterations 12
DICPBiCGStab:  Solving for p, Initial residual = 0.990637, Final residual = 0.00945022, No Iterations 101
DICPBiCGStab:  Solving for p, Initial residual = 9.98718e-06, Final residual = 9.98718e-06, No Iterations 0
DICPBiCGStab:  Solving for p, Initial residual = 9.98718e-06, Final residual = 9.98718e-06, No Iterations 0
time step continuity errors : sum local = 2.60372e+10, global = 141172, cumulative = 141176
smoothSolver:  Solving for nuTilda, Initial residual = 0.920051, Final residual = 0.00759635, No Iterations 38
bounding nuTilda, min: -5.21123 max: 7.03588e+08 average: 35723.6
ExecutionTime = 0.52 s  ClockTime = 0 s

forceCoeffs forceCoeffs write:
    Cm    = -1.57685e+15
    Cd    = -2.73947e+17
    Cl    = 6.58134e+13
    Cl(f) = -1.54394e+15
    Cl(r) = 1.60975e+15

Time = 3

smoothSolver:  Solving for Ux, Initial residual = 0.952365, Final residual = 0.00122873, No Iterations 4
smoothSolver:  Solving for Uy, Initial residual = 0.952595, Final residual = 0.0011864, No Iterations 4
DICPBiCGStab:  Solving for p, Initial residual = 0.691903, Final residual = 0.00420761, No Iterations 320
DICPBiCGStab:  Solving for p, Initial residual = 1.72762e-08, Final residual = 1.72762e-08, No Iterations 0
DICPBiCGStab:  Solving for p, Initial residual = 1.72762e-08, Final residual = 1.72762e-08, No Iterations 0
time step continuity errors : sum local = 1.41429e+14, global = -2.73445e+09, cumulative = -2.73431e+09
smoothSolver:  Solving for nuTilda, Initial residual = 0.610265, Final residual = 0.0043996, No Iterations 14
bounding nuTilda, min: -7.53113e+07 max: 7.1221e+13 average: 8.14623e+09
ExecutionTime = 0.7 s  ClockTime = 0 s

forceCoeffs forceCoeffs write:
    Cm    = 6.34447e+25
    Cd    = 1.06871e+28
    Cl    = 2.30761e+22
    Cl(f) = 6.34563e+25
    Cl(r) = -6.34332e+25

Time = 4

smoothSolver:  Solving for Ux, Initial residual = 0.704891, Final residual = 0.00306671, No Iterations 10
smoothSolver:  Solving for Uy, Initial residual = 0.960264, Final residual = 0.00263019, No Iterations 18
DICPBiCGStab:  Solving for p, Initial residual = 0.947337, Final residual = 0.00918791, No Iterations 273
DICPBiCGStab:  Solving for p, Initial residual = 0.965423, Final residual = 0.00673928, No Iterations 1
DICPBiCGStab:  Solving for p, Initial residual = 0.999181, Final residual = 0.00669239, No Iterations 1
time step continuity errors : sum local = 2.39758e+26, global = 5.59473e+14, cumulative = 5.5947e+14
[iZ6wej1artv0n1hqcx94jpZ:27313] *** Process received signal ***
[iZ6wej1artv0n1hqcx94jpZ:27313] Signal: Floating point exception (8)
[iZ6wej1artv0n1hqcx94jpZ:27313] Signal code:  (-6)
[iZ6wej1artv0n1hqcx94jpZ:27313] Failing at address: 0x6ab1
[iZ6wej1artv0n1hqcx94jpZ:27313] [ 0] /lib/x86_64-linux-gnu/libc.so.6(+0x3ef20)[0x7f1d121a6f20]
[iZ6wej1artv0n1hqcx94jpZ:27313] [ 1] /lib/x86_64-linux-gnu/libc.so.6(gsignal+0xc7)[0x7f1d121a6e97]
[iZ6wej1artv0n1hqcx94jpZ:27313] [ 2] /lib/x86_64-linux-gnu/libc.so.6(+0x3ef20)[0x7f1d121a6f20]
[iZ6wej1artv0n1hqcx94jpZ:27313] [ 3] /opt/openfoam7/platforms/linux64GccDPInt32Opt/lib/libOpenFOAM.so(_ZN4Foam19GaussSeidelSmoother6smoothERKNS_4wordERNS_5FieldIdEERKNS_9lduMatrixERKS5_RKNS_10FieldFieldIS4_dEERKNS_8UPtrListIKNS_17lduInterfaceFieldEEEhi+0x425)[0x7f1d135955f5]
[iZ6wej1artv0n1hqcx94jpZ:27313] [ 4] /opt/openfoam7/platforms/linux64GccDPInt32Opt/lib/libOpenFOAM.so(_ZNK4Foam19GaussSeidelSmoother6smoothERNS_5FieldIdEERKS2_hi+0x28)[0x[iZ6wej1artv0n1hqcx94jpZ:27309] *** Process received signal ***
7f1d135959c8]
[iZ6wej1artv0n1hqcx94jpZ:27313] [ 5] [iZ6wej1artv0n1hqcx94jpZ:27309] Signal: Floating point exception (8)
[iZ6wej1artv0n1hqcx94jpZ:27309] Signal code:  (-6)
[iZ6wej1artv0n1hqcx94jpZ:27309] Failing at address: 0x6aad
[iZ6wej1artv0n1hqcx94jpZ:27309] [ 0] /lib/x86_64-linux-gnu/libc.so.6(+0x3ef20)[0x7f91cc011f20]
[iZ6wej1artv0n1hqcx94jpZ:27309] [ 1] /lib/x86_64-linux-gnu/libc.so.6(gsignal+0xc7)[0x7f91cc011e97]
[iZ6wej1artv0n1hqcx94jpZ:27309] [ 2] /lib/x86_64-linux-gnu/libc.so.6(+0x3ef20)[0x7f91cc011f20]
[iZ6wej1artv0n1hqcx94jpZ:27309] [ 3] /opt/openfoam7/platforms/linux64GccDPInt32Opt/lib/libOpenFOAM.so(/opt/openfoam7/platforms/linux64GccDPInt32Opt/lib/libOpenFOAM.so(_ZN4Foam19GaussSeidelSmoother6smoothERKNS_4wordERNS_5FieldIdEERKNS_9lduMatrixERKS5_RKNS_10FieldFieldIS4_dEERKNS_8UPtrListIKNS_17lduInterfaceFieldEEEhi+0x425)[0x7f91cd4005f5]
[iZ6wej1artv0n1hqcx94jpZ:27309] [ 4] _ZNK4Foam12smoothSolver5solveERNS_5FieldIdEERKS2_h+0x426)[0x7f1d1358d146]
[iZ6wej1artv0n1hqcx94jpZ:27313] [ 6] /opt/openfoam7/platforms/linux64GccDPInt32Opt/lib/libOpenFOAM.so(_ZNK4Foam19GaussSeidelSmoother6smoothERNS_5FieldIdEERKS2_hi+0x28)[0x7f91cd4009c8]
[iZ6wej1artv0n1hqcx94jpZ:27309] [ 5] /opt/openfoam7/platforms/linux64GccDPInt32Opt/lib/libOpenFOAM.so(_ZNK4Foam12smoothSolver5solveERNS_5FieldIdEERKS2_h+0x426)[0x7f91cd3f8146]
[iZ6wej1artv0n1hqcx94jpZ:27309] [ 6] /opt/openfoam7/platforms/linux64GccDPInt32Opt/lib/libfiniteVolume.so(_ZN4Foam8fvMatrixIdE15solveSegregatedERKNS_10dictionaryE+0x17d)[0x7f1d15918ced]
[iZ6wej1artv0n1hqcx94jpZ:27313] [ 7] simpleFoam(_ZN4Foam8fvMatrixIdE5solveERKNS_10dictionaryE+0x15b)[0x55b2cfa65b0b]
[iZ6wej1artv0n1hqcx94jpZ:27313] [ 8] simpleFoam(_ZN4Foam8fvMatrixIdE5solveEv+0xda)[0x55b2cfa65e5a]
[iZ6wej1artv0n1hqcx94jpZ:27313] [ 9] /opt/openfoam7/platforms/linux64GccDPInt32Opt/lib/libincompressibleTurbulenceModels.so(_ZN4Foam5solveIdEENS_17SolverPerformanceIT_EERKNS_3tmpINS_8fvMatrixIS2_EEEE+0x2f)[0x7f1d16f3b04f]
[iZ6wej1artv0n1hqcx94jpZ:27313] [10] /opt/openfoam7/platforms/linux64GccDPInt32Opt/lib/libincompressibleTurbulenceModels.so(_ZN4Foam9RASModels15SpalartAllmarasINS_29IncompressibleTurbulenceModelINS_14transportModelEEEE7correctEv+0x5b0)[0x7f1d16fa05e0]
[iZ6wej1artv0n1hqcx94jpZ:27313] [11] simpleFoam(+0x26612)[0x55b2cfa29612]
[iZ6wej1artv0n1hqcx94jpZ:27313] [12] /lib/x86_64-linux-gnu/libc.so.6(__libc_start_main+0xe7)[0x7f1d12189b97]
[iZ6wej1artv0n1hqcx94jpZ:27313] [13] simpleFoam(+0x27f7a)[0x55b2cfa2af7a]
[iZ6wej1artv0n1hqcx94jpZ:27313] *** End of error message ***
/opt/openfoam7/platforms/linux64GccDPInt32Opt/lib/libfiniteVolume.so(_ZN4Foam8fvMatrixIdE15solveSegregatedERKNS_10dictionaryE+0x17d)[0x7f91cf783ced]
[iZ6wej1artv0n1hqcx94jpZ:27309] [ 7] simpleFoam(_ZN4Foam8fvMatrixIdE5solveERKNS_10dictionaryE+0x15b)[0x55d310c47b0b]
[iZ6wej1artv0n1hqcx94jpZ:27309] [ 8] simpleFoam(_ZN4Foam8fvMatrixIdE5solveEv+0xda)[0x55d310c47e5a]
[iZ6wej1artv0n1hqcx94jpZ:27309] [ 9] /opt/openfoam7/platforms/linux64GccDPInt32Opt/lib/libincompressibleTurbulenceModels.so(_ZN4Foam5solveIdEENS_17SolverPerformanceIT_EERKNS_3tmpINS_8fvMatrixIS2_EEEE+0x2f)[0x7f91d0da604f]
[iZ6wej1artv0n1hqcx94jpZ:27309] [10] /opt/openfoam7/platforms/linux64GccDPInt32Opt/lib/libincompressibleTurbulenceModels.so(_ZN4Foam9RASModels15SpalartAllmarasINS_29IncompressibleTurbulenceModelINS_14transportModelEEEE7correctEv+0x5b0)[0x7f91d0e0b5e0]
[iZ6wej1artv0n1hqcx94jpZ:27309] [11] simpleFoam(+0x26612)[0x55d310c0b612]
[iZ6wej1artv0n1hqcx94jpZ:27309] [12] /lib/x86_64-linux-gnu/libc.so.6(__libc_start_main+0xe7)[0x7f91cbff4b97]
[iZ6wej1artv0n1hqcx94jpZ:27309] [13] simpleFoam(+0x27f7a)[0x55d310c0cf7a]
[iZ6wej1artv0n1hqcx94jpZ:27309] *** End of error message ***
--------------------------------------------------------------------------
mpirun noticed that process rank 4 with PID 0 on node iZ6wej1artv0n1hqcx94jpZ exited on signal 8 (Floating point exception).
--------------------------------------------------------------------------
/*---------------------------------------------------------------------------*\
  =========                 |
  \\      /  F ield         | OpenFOAM: The Open Source CFD Toolbox
   \\    /   O peration     | Website:  https://openfoam.org
    \\  /    A nd           | Version:  7
     \\/     M anipulation  |
\*---------------------------------------------------------------------------*/
Build  : 7-ca808c8420bf
Exec   : reconstructPar -constant
Date   : Dec 19 2019
Time   : 17:30:18
Host   : "iZ6wej1artv0n1hqcx94jpZ"
PID    : 27413
I/O    : uncollated
Case   : /root/OpenFOAM/root-7/run/airfoil_opt/PARSEC_NACA0012/workdir.1/cases/airfoil_run
nProcs : 1
sigFpe : Enabling floating point exception trapping (FOAM_SIGFPE).
fileModificationChecking : Monitoring run-time modified files using timeStampMaster (fileModificationSkew 10)
allowSystemOperations : Allowing user-supplied system call operations

// * * * * * * * * * * * * * * * * * * * * * * * * * * * * * * * * * * * * * //
Create time



Reconstructing fields for mesh region0

Time = constant

Reconstructing FV fields

No FV fields

Reconstructing point fields

No point fields

No lagrangian fields


End

