Delete files......


Making ./cases/airfoil_run case directory
Copying directories/files from airfoil_template/ to ./cases/airfoil_run:
airfoil_template//system to ... system
airfoil_template//constant to ... constant
airfoil_template//0 to ... 0
Copying scripts from airfoil_template/ to ./cases/airfoil_run:
airfoil_template/Allclean to ... Allclean
/*---------------------------------------------------------------------------*\
  =========                 |
  \\      /  F ield         | OpenFOAM: The Open Source CFD Toolbox
   \\    /   O peration     | Website:  https://openfoam.org
    \\  /    A nd           | Version:  dev
     \\/     M anipulation  |
\*---------------------------------------------------------------------------*/
Build  : dev-7cd43ea5f827
Exec   : blockMesh
Date   : Dec 18 2019
Time   : 10:11:53
Host   : "chengpeng-zhao"
PID    : 1250
I/O    : uncollated
Case   : /opt/OpenFOAM/zcp-dev/run/airfoil_opt/cases/airfoil_run
nProcs : 1
sigFpe : Enabling floating point exception trapping (FOAM_SIGFPE).
fileModificationChecking : Monitoring run-time modified files using timeStampMaster (fileModificationSkew 10)
allowSystemOperations : Allowing user-supplied system call operations

// * * * * * * * * * * * * * * * * * * * * * * * * * * * * * * * * * * * * * //
Create time

Creating block mesh from
    "/opt/OpenFOAM/zcp-dev/run/airfoil_opt/cases/airfoil_run/system/blockMeshDict"
Creating block edges
No non-planar block faces defined
Creating topology blocks
Creating topology patches

Creating block mesh topology

Check topology

	Basic statistics
		Number of internal faces : 6
		Number of boundary faces : 24
		Number of defined boundary faces : 24
		Number of undefined boundary faces : 0
	Checking patch -> block consistency

Creating block offsets
Creating merge list .

Creating polyMesh from blockMesh
Creating patches
Creating cells
Creating points with scale 1
    Block 0 cell size :
        i : 0.362595 .. 0.725137 0.351249 .. 0.702987 0.362595 .. 0.725137 0.351249 .. 0.702987 
        j : 0.503641 .. 0.000839402 0.50319 .. 0.000846501 0.503641 .. 0.000839402 0.50319 .. 0.000846501 
        k : 0.01
    Block 1 cell size :
        i : 0.0349725 .. 0.0209835 0.0349755 .. 0.0209808 0.0349725 .. 0.0209835 0.0349755 .. 0.0209808 
        j : 0.423941 .. 0.00211971 0.4239 .. 0.0021195 0.423941 .. 0.00211971 0.4239 .. 0.0021195 
        k : 0.01
    Block 2 cell size :
        i : 0.0092573 .. 0.92573
        j : 0.425568 .. 0.00212784
        k : 0.01
    Block 3 cell size :
        i : 0.0092573 .. 0.92573
        j : 0.00212784 .. 0.425568
        k : 0.01
    Block 4 cell size :
        i : 0.0351053 .. 0.0210633
        j : 0.00211972 .. 0.423943 0.00211952 .. 0.423905 0.00211972 .. 0.423943 0.00211952 .. 0.423905 
        k : 0.01
    Block 5 cell size :
        i : 0.503641 .. 0.000839402 0.50319 .. 0.0008465 0.503641 .. 0.000839402 0.50319 .. 0.0008465 
        j : 0.362595 .. 0.725137 0.351249 .. 0.702987 0.362595 .. 0.725137 0.351249 .. 0.702987 
        k : 0.01

Adding cell zones
    0	b0
    1	b1
    2	b2
    3	b3
    4	b4
    5	b5

Writing polyMesh
----------------
Mesh Information
----------------
  boundingBox: (-14.7948 -15 0) (16 15 0.01)
  nPoints: 110928
  nCells: 55056
  nFaces: 220632
  nInternalFaces: 109704
----------------
Patches
----------------
  patch 0 (start: 109704 size: 45) name: inlet-l
  patch 1 (start: 109749 size: 45) name: airfoil-l1
  patch 2 (start: 109794 size: 8370) name: empty-1
  patch 3 (start: 118164 size: 8370) name: empty-2
  patch 4 (start: 126534 size: 29) name: wall-l1
  patch 5 (start: 126563 size: 29) name: airfoil-l2
  patch 6 (start: 126592 size: 5394) name: empty-3
  patch 7 (start: 131986 size: 5394) name: empty-4
  patch 8 (start: 137380 size: 74) name: wall-l2
  patch 9 (start: 137454 size: 186) name: outlet-l
  patch 10 (start: 137640 size: 13764) name: empty-5
  patch 11 (start: 151404 size: 13764) name: empty-6
  patch 12 (start: 165168 size: 186) name: outlet-h
  patch 13 (start: 165354 size: 74) name: wall-h2
  patch 14 (start: 165428 size: 13764) name: empty-7
  patch 15 (start: 179192 size: 13764) name: empty-8
  patch 16 (start: 192956 size: 29) name: airfoil-h2
  patch 17 (start: 192985 size: 29) name: wall-h1
  patch 18 (start: 193014 size: 5394) name: empty-9
  patch 19 (start: 198408 size: 5394) name: empty-10
  patch 20 (start: 203802 size: 45) name: inlet-h
  patch 21 (start: 203847 size: 45) name: airfoil-h1
  patch 22 (start: 203892 size: 8370) name: empty-11
  patch 23 (start: 212262 size: 8370) name: empty-12

End

/*---------------------------------------------------------------------------*\
  =========                 |
  \\      /  F ield         | OpenFOAM: The Open Source CFD Toolbox
   \\    /   O peration     | Website:  https://openfoam.org
    \\  /    A nd           | Version:  dev
     \\/     M anipulation  |
\*---------------------------------------------------------------------------*/
Build  : dev-7cd43ea5f827
Exec   : checkMesh
Date   : Dec 18 2019
Time   : 10:11:54
Host   : "chengpeng-zhao"
PID    : 1252
I/O    : uncollated
Case   : /opt/OpenFOAM/zcp-dev/run/airfoil_opt/cases/airfoil_run
nProcs : 1
sigFpe : Enabling floating point exception trapping (FOAM_SIGFPE).
fileModificationChecking : Monitoring run-time modified files using timeStampMaster (fileModificationSkew 10)
allowSystemOperations : Allowing user-supplied system call operations

// * * * * * * * * * * * * * * * * * * * * * * * * * * * * * * * * * * * * * //
Create time

Create polyMesh for time = 0

Time = 0

Mesh stats
    points:           110928
    internal points:  0
    faces:            220632
    internal faces:   109704
    cells:            55056
    faces per cell:   6
    boundary patches: 24
    point zones:      0
    face zones:       0
    cell zones:       6

Overall number of cells of each type:
    hexahedra:     55056
    prisms:        0
    wedges:        0
    pyramids:      0
    tet wedges:    0
    tetrahedra:    0
    polyhedra:     0

Checking topology...
    Boundary definition OK.
    Cell to face addressing OK.
    Point usage OK.
    Upper triangular ordering OK.
    Face vertices OK.
    Number of regions: 1 (OK).

Checking patch topology for multiply connected surfaces...
    Patch               Faces    Points   Surface topology                  
    inlet-l             45       92       ok (non-closed singly connected)  
    airfoil-l1          45       92       ok (non-closed singly connected)  
    empty-1             8370     8602     ok (non-closed singly connected)  
    empty-2             8370     8602     ok (non-closed singly connected)  
    wall-l1             29       60       ok (non-closed singly connected)  
    airfoil-l2          29       60       ok (non-closed singly connected)  
    empty-3             5394     5610     ok (non-closed singly connected)  
    empty-4             5394     5610     ok (non-closed singly connected)  
    wall-l2             74       150      ok (non-closed singly connected)  
    outlet-l            186      374      ok (non-closed singly connected)  
    empty-5             13764    14025    ok (non-closed singly connected)  
    empty-6             13764    14025    ok (non-closed singly connected)  
    outlet-h            186      374      ok (non-closed singly connected)  
    wall-h2             74       150      ok (non-closed singly connected)  
    empty-7             13764    14025    ok (non-closed singly connected)  
    empty-8             13764    14025    ok (non-closed singly connected)  
    airfoil-h2          29       60       ok (non-closed singly connected)  
    wall-h1             29       60       ok (non-closed singly connected)  
    empty-9             5394     5610     ok (non-closed singly connected)  
    empty-10            5394     5610     ok (non-closed singly connected)  
    inlet-h             45       92       ok (non-closed singly connected)  
    airfoil-h1          45       92       ok (non-closed singly connected)  
    empty-11            8370     8602     ok (non-closed singly connected)  
    empty-12            8370     8602     ok (non-closed singly connected)  

Checking geometry...
    Overall domain bounding box (-14.7948 -15 0) (16 15 0.01)
    Mesh has 2 geometric (non-empty/wedge) directions (1 1 0)
    Mesh has 2 solution (non-empty) directions (1 1 0)
    All edges aligned with or perpendicular to non-empty directions.
    Boundary openness (2.2937e-21 5.5149e-20 3.65893e-16) OK.
    Max cell openness = 2.73531e-16 OK.
    Max aspect ratio = 435.056 OK.
    Minimum face area = 2.64407e-06. Maximum face area = 0.393961.  Face area magnitudes OK.
    Min volume = 2.64407e-08. Max volume = 0.00393961.  Total volume = 8.27111.  Cell volumes OK.
    Mesh non-orthogonality Max: 40.2053 average: 6.40448
    Non-orthogonality check OK.
    Face pyramids OK.
    Max skewness = 0.28613 OK.
    Coupled point location match (average 0) OK.

Mesh OK.

End

/*---------------------------------------------------------------------------*\
  =========                 |
  \\      /  F ield         | OpenFOAM: The Open Source CFD Toolbox
   \\    /   O peration     | Website:  https://openfoam.org
    \\  /    A nd           | Version:  dev
     \\/     M anipulation  |
\*---------------------------------------------------------------------------*/
Build  : dev-7cd43ea5f827
Exec   : renumberMesh -overwrite
Date   : Dec 18 2019
Time   : 10:11:55
Host   : "chengpeng-zhao"
PID    : 1253
I/O    : uncollated
Case   : /opt/OpenFOAM/zcp-dev/run/airfoil_opt/cases/airfoil_run
nProcs : 1
sigFpe : Enabling floating point exception trapping (FOAM_SIGFPE).
fileModificationChecking : Monitoring run-time modified files using timeStampMaster (fileModificationSkew 10)
allowSystemOperations : Allowing user-supplied system call operations

// * * * * * * * * * * * * * * * * * * * * * * * * * * * * * * * * * * * * * //
Create time

Create mesh for time = 0

Mesh size: 55056
Before renumbering :
    band           : 46686
    profile        : 1.89879e+07

Using default renumberMethod.

Selecting renumberMethod CuthillMcKee

Reading geometric fields

Reading volScalarField p
Reading volScalarField nuTilda
Reading volScalarField nut
Reading volVectorField U

After renumbering :
    band           : 297
    profile        : 1.19793e+07

Writing mesh to "constant"

End

/*---------------------------------------------------------------------------*\
  =========                 |
  \\      /  F ield         | OpenFOAM: The Open Source CFD Toolbox
   \\    /   O peration     | Website:  https://openfoam.org
    \\  /    A nd           | Version:  dev
     \\/     M anipulation  |
\*---------------------------------------------------------------------------*/
Build  : dev-7cd43ea5f827
Exec   : decomposePar
Date   : Dec 18 2019
Time   : 10:11:55
Host   : "chengpeng-zhao"
PID    : 1254
I/O    : uncollated
Case   : /opt/OpenFOAM/zcp-dev/run/airfoil_opt/cases/airfoil_run
nProcs : 1
sigFpe : Enabling floating point exception trapping (FOAM_SIGFPE).
fileModificationChecking : Monitoring run-time modified files using timeStampMaster (fileModificationSkew 10)
allowSystemOperations : Allowing user-supplied system call operations

// * * * * * * * * * * * * * * * * * * * * * * * * * * * * * * * * * * * * * //
Create time



Decomposing mesh region0

Create mesh

Calculating distribution of cells
Selecting decompositionMethod simple

Finished decomposition in 0.02 s

Calculating original mesh data

Distributing cells to processors

Distributing faces to processors

Distributing points to processors

Constructing processor meshes

Processor 0
    Number of cells = 13777
    Number of faces shared with processor 1 = 187
    Number of faces shared with processor 2 = 187
    Number of processor patches = 2
    Number of processor faces = 374
    Number of boundary faces = 27702

Processor 1
    Number of cells = 13751
    Number of faces shared with processor 0 = 187
    Number of faces shared with processor 2 = 1
    Number of faces shared with processor 3 = 81
    Number of processor patches = 3
    Number of processor faces = 269
    Number of boundary faces = 27757

Processor 2
    Number of cells = 13751
    Number of faces shared with processor 0 = 187
    Number of faces shared with processor 1 = 1
    Number of faces shared with processor 3 = 186
    Number of processor patches = 3
    Number of processor faces = 374
    Number of boundary faces = 27650

Processor 3
    Number of cells = 13777
    Number of faces shared with processor 1 = 81
    Number of faces shared with processor 2 = 186
    Number of processor patches = 2
    Number of processor faces = 267
    Number of boundary faces = 27819

Number of processor faces = 642
Max number of cells = 13777 (0.0944493% above average 13764)
Max number of processor patches = 3 (20% above average 2.5)
Max number of faces between processors = 374 (16.5109% above average 321)

Time = 0

Processor 0: field transfer
Processor 1: field transfer
Processor 2: field transfer
Processor 3: field transfer

End

/*---------------------------------------------------------------------------*\
  =========                 |
  \\      /  F ield         | OpenFOAM: The Open Source CFD Toolbox
   \\    /   O peration     | Website:  https://openfoam.org
    \\  /    A nd           | Version:  dev
     \\/     M anipulation  |
\*---------------------------------------------------------------------------*/
Build  : dev-7cd43ea5f827
Exec   : simpleFoam -parallel
Date   : Dec 18 2019
Time   : 10:11:56
Host   : "chengpeng-zhao"
PID    : 1264
I/O    : uncollated
Case   : /opt/OpenFOAM/zcp-dev/run/airfoil_opt/cases/airfoil_run
nProcs : 4
Slaves : 
3
(
"chengpeng-zhao.1265"
"chengpeng-zhao.1266"
"chengpeng-zhao.1275"
)

Pstream initialized with:
    floatTransfer      : 0
    nProcsSimpleSum    : 0
    commsType          : nonBlocking
    polling iterations : 0
sigFpe : Enabling floating point exception trapping (FOAM_SIGFPE).
fileModificationChecking : Monitoring run-time modified files using timeStampMaster (fileModificationSkew 10)
allowSystemOperations : Allowing user-supplied system call operations

// * * * * * * * * * * * * * * * * * * * * * * * * * * * * * * * * * * * * * //
Create time

Create mesh for time = 0


SIMPLE: Convergence criteria found
        p: tolerance 1e-06
        U: tolerance 1e-06
        nuTilda: tolerance 1e-06

Reading field p

Reading field U

Reading/calculating face flux field phi

Selecting incompressible transport model Newtonian
Selecting turbulence model type RAS
Selecting RAS turbulence model SpalartAllmaras
Selecting patchDistMethod meshWave
RAS
{
    RASModel        SpalartAllmaras;
    turbulence      on;
    printCoeffs     on;
    sigmaNut        0.66666;
    kappa           0.41;
    Cb1             0.1355;
    Cb2             0.622;
    Cw2             0.3;
    Cw3             2;
    Cv1             7.1;
    Cs              0.3;
}

No MRF models present

No finite volume options present

Starting time loop

forces forceCoeffs:
    Not including porosity effects
forceCoeffs forceCoeffs:
    Not including porosity effects
forceCoeffs forceCoeffs write:
    Cm    = 8.31834e-05
    Cd    = 0.00137236
    Cl    = 9.64363e-05
    Cl(f) = 0.000131402
    Cl(r) = -3.49653e-05

Time = 1

smoothSolver:  Solving for Ux, Initial residual = 1, Final residual = 0.00805157, No Iterations 14
smoothSolver:  Solving for Uy, Initial residual = 1, Final residual = 0.00805149, No Iterations 14
DICPBiCGStab:  Solving for p, Initial residual = 1, Final residual = 0.00734168, No Iterations 68
DICPBiCGStab:  Solving for p, Initial residual = 0.007438, Final residual = 7.35904e-05, No Iterations 89
DICPBiCGStab:  Solving for p, Initial residual = 0.00116751, Final residual = 1.12138e-05, No Iterations 96
time step continuity errors : sum local = 4.1008e-05, global = -7.22647e-06, cumulative = -7.22647e-06
smoothSolver:  Solving for nuTilda, Initial residual = 1, Final residual = 0.00545771, No Iterations 10
ExecutionTime = 0.21 s  ClockTime = 0 s

forceCoeffs forceCoeffs write:
    Cm    = 3.64303
    Cd    = 5.89553
    Cl    = 15.4654
    Cl(f) = 11.3757
    Cl(r) = 4.08966

Time = 2

smoothSolver:  Solving for Ux, Initial residual = 0.270594, Final residual = 0.00135865, No Iterations 10
smoothSolver:  Solving for Uy, Initial residual = 0.35195, Final residual = 0.00240141, No Iterations 10
DICPBiCGStab:  Solving for p, Initial residual = 0.225949, Final residual = 0.00216649, No Iterations 59
DICPBiCGStab:  Solving for p, Initial residual = 0.0300267, Final residual = 0.00029637, No Iterations 71
DICPBiCGStab:  Solving for p, Initial residual = 0.010244, Final residual = 5.4965e-05, No Iterations 83
time step continuity errors : sum local = 4.10602e-05, global = 2.73121e-05, cumulative = 2.00856e-05
smoothSolver:  Solving for nuTilda, Initial residual = 0.0452798, Final residual = 0.000449376, No Iterations 8
ExecutionTime = 0.32 s  ClockTime = 1 s

forceCoeffs forceCoeffs write:
    Cm    = 2.05897
    Cd    = 3.32004
    Cl    = 9.24135
    Cl(f) = 6.67965
    Cl(r) = 2.5617

Time = 3

smoothSolver:  Solving for Ux, Initial residual = 0.0968041, Final residual = 0.000462138, No Iterations 10
smoothSolver:  Solving for Uy, Initial residual = 0.0575238, Final residual = 0.000368167, No Iterations 10
DICPBiCGStab:  Solving for p, Initial residual = 0.283406, Final residual = 0.00271313, No Iterations 70
DICPBiCGStab:  Solving for p, Initial residual = 0.0113414, Final residual = 0.000103518, No Iterations 70
DICPBiCGStab:  Solving for p, Initial residual = 0.0026596, Final residual = 2.51142e-05, No Iterations 91
time step continuity errors : sum local = 7.04409e-05, global = 6.25811e-05, cumulative = 8.26667e-05
smoothSolver:  Solving for nuTilda, Initial residual = 0.0363919, Final residual = 0.000230101, No Iterations 8
ExecutionTime = 0.44 s  ClockTime = 1 s

forceCoeffs forceCoeffs write:
    Cm    = -1.1607
    Cd    = -1.54617
    Cl    = -3.51889
    Cl(f) = -2.92014
    Cl(r) = -0.598747

Time = 4

smoothSolver:  Solving for Ux, Initial residual = 0.0260013, Final residual = 0.000201198, No Iterations 10
smoothSolver:  Solving for Uy, Initial residual = 0.0190997, Final residual = 8.97402e-05, No Iterations 12
DICPBiCGStab:  Solving for p, Initial residual = 0.23603, Final residual = 0.00224529, No Iterations 58
DICPBiCGStab:  Solving for p, Initial residual = 0.00828736, Final residual = 6.81577e-05, No Iterations 65
DICPBiCGStab:  Solving for p, Initial residual = 0.00165483, Final residual = 1.59705e-05, No Iterations 89
time step continuity errors : sum local = 2.9125e-05, global = 2.81176e-05, cumulative = 0.000110784
smoothSolver:  Solving for nuTilda, Initial residual = 0.0252846, Final residual = 0.000192947, No Iterations 6
ExecutionTime = 0.56 s  ClockTime = 1 s

forceCoeffs forceCoeffs write:
    Cm    = -2.21458
    Cd    = -3.22239
    Cl    = -8.35293
    Cl(f) = -6.39105
    Cl(r) = -1.96188

Time = 5

smoothSolver:  Solving for Ux, Initial residual = 0.107067, Final residual = 0.000661265, No Iterations 10
smoothSolver:  Solving for Uy, Initial residual = 0.0746242, Final residual = 0.000602637, No Iterations 10
DICPBiCGStab:  Solving for p, Initial residual = 0.17556, Final residual = 0.00173326, No Iterations 68
DICPBiCGStab:  Solving for p, Initial residual = 0.0182739, Final residual = 0.00018246, No Iterations 82
DICPBiCGStab:  Solving for p, Initial residual = 0.00835329, Final residual = 6.50433e-05, No Iterations 81
time step continuity errors : sum local = 5.28863e-05, global = -1.3245e-05, cumulative = 9.75393e-05
smoothSolver:  Solving for nuTilda, Initial residual = 0.0152356, Final residual = 0.0001331, No Iterations 6
ExecutionTime = 0.67 s  ClockTime = 1 s

forceCoeffs forceCoeffs write:
    Cm    = -0.733754
    Cd    = -1.18992
    Cl    = -3.21833
    Cl(f) = -2.34292
    Cl(r) = -0.87541

Time = 6

smoothSolver:  Solving for Ux, Initial residual = 0.0808364, Final residual = 0.000450767, No Iterations 10
smoothSolver:  Solving for Uy, Initial residual = 0.0905773, Final residual = 0.000558189, No Iterations 10
DICPBiCGStab:  Solving for p, Initial residual = 0.279118, Final residual = 0.00258876, No Iterations 60
DICPBiCGStab:  Solving for p, Initial residual = 0.0112389, Final residual = 7.98418e-05, No Iterations 76
DICPBiCGStab:  Solving for p, Initial residual = 0.00282812, Final residual = 1.84115e-05, No Iterations 88
time step continuity errors : sum local = 3.24893e-05, global = -2.61522e-05, cumulative = 7.13871e-05
smoothSolver:  Solving for nuTilda, Initial residual = 0.012321, Final residual = 4.02133e-05, No Iterations 8
ExecutionTime = 0.8 s  ClockTime = 1 s

forceCoeffs forceCoeffs write:
    Cm    = 1.07704
    Cd    = 1.43549
    Cl    = 3.80004
    Cl(f) = 2.97706
    Cl(r) = 0.822986

Time = 7

smoothSolver:  Solving for Ux, Initial residual = 0.052039, Final residual = 0.000317139, No Iterations 10
smoothSolver:  Solving for Uy, Initial residual = 0.0667399, Final residual = 0.000653195, No Iterations 10
DICPBiCGStab:  Solving for p, Initial residual = 0.221223, Final residual = 0.00212457, No Iterations 64
DICPBiCGStab:  Solving for p, Initial residual = 0.0127339, Final residual = 0.000117592, No Iterations 55
DICPBiCGStab:  Solving for p, Initial residual = 0.00262711, Final residual = 2.61224e-05, No Iterations 75
time step continuity errors : sum local = 2.15924e-05, global = -1.8558e-05, cumulative = 5.28291e-05
smoothSolver:  Solving for nuTilda, Initial residual = 0.0102625, Final residual = 4.29475e-05, No Iterations 8
ExecutionTime = 0.89 s  ClockTime = 1 s

forceCoeffs forceCoeffs write:
    Cm    = 1.33172
    Cd    = 2.02529
    Cl    = 5.58085
    Cl(f) = 4.12214
    Cl(r) = 1.45871

Time = 8

smoothSolver:  Solving for Ux, Initial residual = 0.0633997, Final residual = 0.000346675, No Iterations 10
smoothSolver:  Solving for Uy, Initial residual = 0.0514464, Final residual = 0.000416462, No Iterations 10
DICPBiCGStab:  Solving for p, Initial residual = 0.184535, Final residual = 0.0015545, No Iterations 63
DICPBiCGStab:  Solving for p, Initial residual = 0.0154682, Final residual = 0.000131657, No Iterations 56
DICPBiCGStab:  Solving for p, Initial residual = 0.00431002, Final residual = 4.14678e-05, No Iterations 77
time step continuity errors : sum local = 2.91912e-05, global = 2.90106e-05, cumulative = 8.18397e-05
smoothSolver:  Solving for nuTilda, Initial residual = 0.00915846, Final residual = 4.66872e-05, No Iterations 8
bounding nuTilda, min: -4.7969e-05 max: 0.0174389 average: 0.000112728
ExecutionTime = 1 s  ClockTime = 1 s

forceCoeffs forceCoeffs write:
    Cm    = 0.285982
    Cd    = 0.729976
    Cl    = 2.30063
    Cl(f) = 1.4363
    Cl(r) = 0.864331

Time = 9

smoothSolver:  Solving for Ux, Initial residual = 0.0270437, Final residual = 0.000116553, No Iterations 10
smoothSolver:  Solving for Uy, Initial residual = 0.0186283, Final residual = 0.000132125, No Iterations 10
DICPBiCGStab:  Solving for p, Initial residual = 0.370337, Final residual = 0.0036425, No Iterations 71
DICPBiCGStab:  Solving for p, Initial residual = 0.0105054, Final residual = 9.8808e-05, No Iterations 70
DICPBiCGStab:  Solving for p, Initial residual = 0.00237228, Final residual = 2.30608e-05, No Iterations 89
time step continuity errors : sum local = 2.49732e-05, global = 1.92477e-05, cumulative = 0.000101087
smoothSolver:  Solving for nuTilda, Initial residual = 0.00777698, Final residual = 4.85211e-05, No Iterations 8
ExecutionTime = 1.12 s  ClockTime = 1 s

forceCoeffs forceCoeffs write:
    Cm    = -0.707809
    Cd    = -0.650416
    Cl    = -1.43255
    Cl(f) = -1.42409
    Cl(r) = -0.00846847

Time = 10

smoothSolver:  Solving for Ux, Initial residual = 0.0208687, Final residual = 0.000174738, No Iterations 10
smoothSolver:  Solving for Uy, Initial residual = 0.0172455, Final residual = 7.91122e-05, No Iterations 12
DICPBiCGStab:  Solving for p, Initial residual = 0.209217, Final residual = 0.00126421, No Iterations 55
DICPBiCGStab:  Solving for p, Initial residual = 0.0174117, Final residual = 0.000159051, No Iterations 61
DICPBiCGStab:  Solving for p, Initial residual = 0.00350356, Final residual = 1.8461e-05, No Iterations 84
time step continuity errors : sum local = 7.79844e-06, global = 7.23946e-06, cumulative = 0.000108327
smoothSolver:  Solving for nuTilda, Initial residual = 0.00677306, Final residual = 4.74085e-05, No Iterations 8
ExecutionTime = 1.23 s  ClockTime = 1 s

forceCoeffs forceCoeffs write:
    Cm    = -0.681791
    Cd    = -0.80653
    Cl    = -1.94766
    Cl(f) = -1.65562
    Cl(r) = -0.292041

Time = 11

smoothSolver:  Solving for Ux, Initial residual = 0.029546, Final residual = 0.000217254, No Iterations 10
smoothSolver:  Solving for Uy, Initial residual = 0.0245349, Final residual = 0.000205341, No Iterations 10
DICPBiCGStab:  Solving for p, Initial residual = 0.20969, Final residual = 0.00205821, No Iterations 79
DICPBiCGStab:  Solving for p, Initial residual = 0.0145694, Final residual = 0.000144369, No Iterations 66
DICPBiCGStab:  Solving for p, Initial residual = 0.00424912, Final residual = 2.42129e-05, No Iterations 70
time step continuity errors : sum local = 1.24051e-05, global = -1.17666e-05, cumulative = 9.65602e-05
smoothSolver:  Solving for nuTilda, Initial residual = 0.00592979, Final residual = 4.59329e-05, No Iterations 8
bounding nuTilda, min: -1.56739e-05 max: 0.0236194 average: 0.000134836
ExecutionTime = 1.34 s  ClockTime = 2 s

forceCoeffs forceCoeffs write:
    Cm    = -0.0132609
    Cd    = -0.0354358
    Cl    = 0.0922188
    Cl(f) = 0.0328485
    Cl(r) = 0.0593703

Time = 12

smoothSolver:  Solving for Ux, Initial residual = 0.0164653, Final residual = 0.000107655, No Iterations 10
smoothSolver:  Solving for Uy, Initial residual = 0.0151504, Final residual = 0.000114374, No Iterations 10
DICPBiCGStab:  Solving for p, Initial residual = 0.459456, Final residual = 0.00429252, No Iterations 64
DICPBiCGStab:  Solving for p, Initial residual = 0.0133809, Final residual = 0.000133736, No Iterations 59
DICPBiCGStab:  Solving for p, Initial residual = 0.00319911, Final residual = 2.89221e-05, No Iterations 82
time step continuity errors : sum local = 1.66385e-05, global = -3.51101e-06, cumulative = 9.30492e-05
smoothSolver:  Solving for nuTilda, Initial residual = 0.00534928, Final residual = 4.51047e-05, No Iterations 8
bounding nuTilda, min: -6.69302e-06 max: 0.0257069 average: 0.000142366
ExecutionTime = 1.44 s  ClockTime = 2 s

forceCoeffs forceCoeffs write:
    Cm    = 0.509673
    Cd    = 0.669883
    Cl    = 2.0695
    Cl(f) = 1.54442
    Cl(r) = 0.525075

Time = 13

smoothSolver:  Solving for Ux, Initial residual = 0.0214685, Final residual = 0.000124176, No Iterations 10
smoothSolver:  Solving for Uy, Initial residual = 0.0183159, Final residual = 0.000167264, No Iterations 10
DICPBiCGStab:  Solving for p, Initial residual = 0.27776, Final residual = 0.00256266, No Iterations 42
DICPBiCGStab:  Solving for p, Initial residual = 0.0430715, Final residual = 0.000425616, No Iterations 65
DICPBiCGStab:  Solving for p, Initial residual = 0.00878265, Final residual = 8.76881e-05, No Iterations 51
time step continuity errors : sum local = 1.36272e-05, global = -1.14e-06, cumulative = 9.19092e-05
smoothSolver:  Solving for nuTilda, Initial residual = 0.00500095, Final residual = 4.49142e-05, No Iterations 8
bounding nuTilda, min: -6.99902e-05 max: 0.0277836 average: 0.000149945
ExecutionTime = 1.53 s  ClockTime = 2 s

forceCoeffs forceCoeffs write:
    Cm    = 0.39977
    Cd    = 0.680334
    Cl    = 2.14521
    Cl(f) = 1.47237
    Cl(r) = 0.672832

Time = 14

smoothSolver:  Solving for Ux, Initial residual = 0.0207697, Final residual = 0.000101749, No Iterations 10
smoothSolver:  Solving for Uy, Initial residual = 0.0162095, Final residual = 0.000130444, No Iterations 10
DICPBiCGStab:  Solving for p, Initial residual = 0.291944, Final residual = 0.00268536, No Iterations 73
DICPBiCGStab:  Solving for p, Initial residual = 0.0135518, Final residual = 0.000132429, No Iterations 74
DICPBiCGStab:  Solving for p, Initial residual = 0.00401066, Final residual = 3.65863e-05, No Iterations 62
time step continuity errors : sum local = 1.58561e-05, global = 7.06692e-06, cumulative = 9.89761e-05
smoothSolver:  Solving for nuTilda, Initial residual = 0.00463806, Final residual = 4.51813e-05, No Iterations 8
bounding nuTilda, min: -6.37386e-05 max: 0.0298057 average: 0.000157815
ExecutionTime = 1.64 s  ClockTime = 2 s

forceCoeffs forceCoeffs write:
    Cm    = -0.0401095
    Cd    = 0.230428
    Cl    = 0.914839
    Cl(f) = 0.41731
    Cl(r) = 0.497529

Time = 15

smoothSolver:  Solving for Ux, Initial residual = 0.0119295, Final residual = 5.39984e-05, No Iterations 10
smoothSolver:  Solving for Uy, Initial residual = 0.0096427, Final residual = 7.39888e-05, No Iterations 10
DICPBiCGStab:  Solving for p, Initial residual = 0.408766, Final residual = 0.0036311, No Iterations 64
DICPBiCGStab:  Solving for p, Initial residual = 0.0125955, Final residual = 0.000125661, No Iterations 64
DICPBiCGStab:  Solving for p, Initial residual = 0.00272796, Final residual = 1.70468e-05, No Iterations 87
time step continuity errors : sum local = 6.62283e-06, global = 2.77922e-06, cumulative = 0.000101755
smoothSolver:  Solving for nuTilda, Initial residual = 0.00431751, Final residual = 1.64805e-05, No Iterations 10
bounding nuTilda, min: -1.35781e-05 max: 0.0319808 average: 0.000165774
ExecutionTime = 1.77 s  ClockTime = 2 s

forceCoeffs forceCoeffs write:
    Cm    = -0.299246
    Cd    = -0.120656
    Cl    = -0.0685062
    Cl(f) = -0.333499
    Cl(r) = 0.264993

Time = 16

smoothSolver:  Solving for Ux, Initial residual = 0.0111488, Final residual = 8.64682e-05, No Iterations 10
smoothSolver:  Solving for Uy, Initial residual = 0.0108198, Final residual = 9.36841e-05, No Iterations 10
DICPBiCGStab:  Solving for p, Initial residual = 0.21772, Final residual = 0.00211995, No Iterations 35
DICPBiCGStab:  Solving for p, Initial residual = 0.0293991, Final residual = 0.000277964, No Iterations 60
DICPBiCGStab:  Solving for p, Initial residual = 0.00656413, Final residual = 6.51044e-05, No Iterations 54
time step continuity errors : sum local = 8.4819e-06, global = -7.24888e-06, cumulative = 9.45065e-05
smoothSolver:  Solving for nuTilda, Initial residual = 0.004124, Final residual = 1.631e-05, No Iterations 10
bounding nuTilda, min: -7.52159e-05 max: 0.0340025 average: 0.000173395
ExecutionTime = 1.86 s  ClockTime = 2 s

forceCoeffs forceCoeffs write:
    Cm    = -0.195644
    Cd    = -0.0947423
    Cl    = 0.013793
    Cl(f) = -0.188748
    Cl(r) = 0.202541

Time = 17

smoothSolver:  Solving for Ux, Initial residual = 0.0110427, Final residual = 8.04068e-05, No Iterations 10
smoothSolver:  Solving for Uy, Initial residual = 0.0101756, Final residual = 7.74123e-05, No Iterations 10
DICPBiCGStab:  Solving for p, Initial residual = 0.240601, Final residual = 0.00238969, No Iterations 63
DICPBiCGStab:  Solving for p, Initial residual = 0.0188714, Final residual = 0.000166048, No Iterations 69
DICPBiCGStab:  Solving for p, Initial residual = 0.00497677, Final residual = 4.35476e-05, No Iterations 45
time step continuity errors : sum local = 9.55208e-06, global = -7.5101e-06, cumulative = 8.69964e-05
smoothSolver:  Solving for nuTilda, Initial residual = 0.00401003, Final residual = 1.64064e-05, No Iterations 10
bounding nuTilda, min: -0.000137278 max: 0.0361675 average: 0.000180827
ExecutionTime = 1.96 s  ClockTime = 2 s

forceCoeffs forceCoeffs write:
    Cm    = 0.0584033
    Cd    = 0.156045
    Cl    = 0.740882
    Cl(f) = 0.428844
    Cl(r) = 0.312038

Time = 18

smoothSolver:  Solving for Ux, Initial residual = 0.0095862, Final residual = 5.59898e-05, No Iterations 10
smoothSolver:  Solving for Uy, Initial residual = 0.00890071, Final residual = 6.19497e-05, No Iterations 10
DICPBiCGStab:  Solving for p, Initial residual = 0.413254, Final residual = 0.00176632, No Iterations 60
DICPBiCGStab:  Solving for p, Initial residual = 0.0227915, Final residual = 0.00022733, No Iterations 48
DICPBiCGStab:  Solving for p, Initial residual = 0.005465, Final residual = 5.33542e-05, No Iterations 78
time step continuity errors : sum local = 8.75709e-06, global = -4.92862e-06, cumulative = 8.20677e-05
smoothSolver:  Solving for nuTilda, Initial residual = 0.00409817, Final residual = 1.6891e-05, No Iterations 10
bounding nuTilda, min: -0.000161974 max: 0.0381598 average: 0.000188105
ExecutionTime = 2.06 s  ClockTime = 2 s

forceCoeffs forceCoeffs write:
    Cm    = 0.189332
    Cd    = 0.336881
    Cl    = 1.27121
    Cl(f) = 0.82494
    Cl(r) = 0.446275

Time = 19

smoothSolver:  Solving for Ux, Initial residual = 0.0113806, Final residual = 5.06318e-05, No Iterations 10
smoothSolver:  Solving for Uy, Initial residual = 0.00974243, Final residual = 7.49488e-05, No Iterations 10
DICPBiCGStab:  Solving for p, Initial residual = 0.458598, Final residual = 0.00447343, No Iterations 38
DICPBiCGStab:  Solving for p, Initial residual = 0.0266891, Final residual = 0.000263, No Iterations 46
DICPBiCGStab:  Solving for p, Initial residual = 0.00640313, Final residual = 6.39204e-05, No Iterations 65
time step continuity errors : sum local = 7.69466e-06, global = 7.48603e-06, cumulative = 8.95538e-05
smoothSolver:  Solving for nuTilda, Initial residual = 0.00403444, Final residual = 1.77087e-05, No Iterations 10
bounding nuTilda, min: -0.0002779 max: 0.0403342 average: 0.000195337
ExecutionTime = 2.15 s  ClockTime = 2 s

forceCoeffs forceCoeffs write:
    Cm    = 0.114886
    Cd    = 0.310185
    Cl    = 1.19908
    Cl(f) = 0.714425
    Cl(r) = 0.484654

Time = 20

smoothSolver:  Solving for Ux, Initial residual = 0.0108563, Final residual = 0.00010444, No Iterations 8
smoothSolver:  Solving for Uy, Initial residual = 0.00893489, Final residual = 6.22406e-05, No Iterations 10
DICPBiCGStab:  Solving for p, Initial residual = 0.505689, Final residual = 0.00457547, No Iterations 67
DICPBiCGStab:  Solving for p, Initial residual = 0.0144684, Final residual = 0.000131134, No Iterations 64
DICPBiCGStab:  Solving for p, Initial residual = 0.00303805, Final residual = 2.96586e-05, No Iterations 62
time step continuity errors : sum local = 6.59745e-06, global = -3.80867e-06, cumulative = 8.57451e-05
smoothSolver:  Solving for nuTilda, Initial residual = 0.00404533, Final residual = 1.88166e-05, No Iterations 10
bounding nuTilda, min: -0.000261086 max: 0.0422591 average: 0.000202742
ExecutionTime = 2.27 s  ClockTime = 3 s

forceCoeffs forceCoeffs write:
    Cm    = -0.0343394
    Cd    = 0.166429
    Cl    = 0.790621
    Cl(f) = 0.360971
    Cl(r) = 0.42965

Time = 21

smoothSolver:  Solving for Ux, Initial residual = 0.00940152, Final residual = 4.31609e-05, No Iterations 10
smoothSolver:  Solving for Uy, Initial residual = 0.00765947, Final residual = 4.76138e-05, No Iterations 10
DICPBiCGStab:  Solving for p, Initial residual = 0.268991, Final residual = 0.00261035, No Iterations 47
DICPBiCGStab:  Solving for p, Initial residual = 0.0153382, Final residual = 0.000105812, No Iterations 68
DICPBiCGStab:  Solving for p, Initial residual = 0.00436035, Final residual = 4.21484e-05, No Iterations 55
time step continuity errors : sum local = 7.66197e-06, global = 2.1833e-06, cumulative = 8.79284e-05
smoothSolver:  Solving for nuTilda, Initial residual = 0.00410994, Final residual = 2.00798e-05, No Iterations 10
bounding nuTilda, min: -0.000389422 max: 0.0443681 average: 0.000210234
ExecutionTime = 2.37 s  ClockTime = 3 s

forceCoeffs forceCoeffs write:
    Cm    = -0.102969
    Cd    = 0.0681893
    Cl    = 0.523469
    Cl(f) = 0.158766
    Cl(r) = 0.364703

Time = 22

smoothSolver:  Solving for Ux, Initial residual = 0.00868553, Final residual = 4.93653e-05, No Iterations 10
smoothSolver:  Solving for Uy, Initial residual = 0.00788454, Final residual = 4.90472e-05, No Iterations 10
DICPBiCGStab:  Solving for p, Initial residual = 0.219312, Final residual = 0.00213825, No Iterations 36
DICPBiCGStab:  Solving for p, Initial residual = 0.0231924, Final residual = 0.000222079, No Iterations 85
DICPBiCGStab:  Solving for p, Initial residual = 0.00948448, Final residual = 9.37304e-05, No Iterations 44
time step continuity errors : sum local = 7.04893e-06, global = 6.93833e-06, cumulative = 9.48667e-05
smoothSolver:  Solving for nuTilda, Initial residual = 0.00418732, Final residual = 2.14348e-05, No Iterations 10
bounding nuTilda, min: -0.000422481 max: 0.046192 average: 0.000217661
ExecutionTime = 2.47 s  ClockTime = 3 s

forceCoeffs forceCoeffs write:
    Cm    = -0.054701
    Cd    = 0.0859486
    Cl    = 0.600774
    Cl(f) = 0.245686
    Cl(r) = 0.355088

Time = 23

smoothSolver:  Solving for Ux, Initial residual = 0.00870423, Final residual = 4.88139e-05, No Iterations 10
smoothSolver:  Solving for Uy, Initial residual = 0.00767428, Final residual = 4.23328e-05, No Iterations 10
DICPBiCGStab:  Solving for p, Initial residual = 0.235837, Final residual = 0.00213915, No Iterations 56
DICPBiCGStab:  Solving for p, Initial residual = 0.0325553, Final residual = 0.000299838, No Iterations 49
DICPBiCGStab:  Solving for p, Initial residual = 0.00748548, Final residual = 7.32079e-05, No Iterations 60
time step continuity errors : sum local = 5.2769e-06, global = -9.99783e-07, cumulative = 9.38669e-05
smoothSolver:  Solving for nuTilda, Initial residual = 0.00428248, Final residual = 2.29267e-05, No Iterations 10
bounding nuTilda, min: -0.000388341 max: 0.0481722 average: 0.000224908
ExecutionTime = 2.57 s  ClockTime = 3 s

forceCoeffs forceCoeffs write:
    Cm    = 0.0340754
    Cd    = 0.166724
    Cl    = 0.855661
    Cl(f) = 0.461906
    Cl(r) = 0.393755

Time = 24

smoothSolver:  Solving for Ux, Initial residual = 0.0090592, Final residual = 4.26881e-05, No Iterations 10
smoothSolver:  Solving for Uy, Initial residual = 0.007647, Final residual = 4.10193e-05, No Iterations 10
DICPBiCGStab:  Solving for p, Initial residual = 0.283312, Final residual = 0.00244679, No Iterations 56
DICPBiCGStab:  Solving for p, Initial residual = 0.0307116, Final residual = 0.000155019, No Iterations 96
DICPBiCGStab:  Solving for p, Initial residual = 0.0069634, Final residual = 6.07135e-05, No Iterations 47
time step continuity errors : sum local = 3.79986e-06, global = 9.63788e-07, cumulative = 9.48307e-05
smoothSolver:  Solving for nuTilda, Initial residual = 0.00443559, Final residual = 2.45223e-05, No Iterations 10
bounding nuTilda, min: -0.00104252 max: 0.049907 average: 0.000232063
ExecutionTime = 2.68 s  ClockTime = 3 s

forceCoeffs forceCoeffs write:
    Cm    = 0.0782221
    Cd    = 0.221027
    Cl    = 1.02185
    Cl(f) = 0.589146
    Cl(r) = 0.432702

Time = 25

smoothSolver:  Solving for Ux, Initial residual = 0.00951529, Final residual = 9.27398e-05, No Iterations 8
smoothSolver:  Solving for Uy, Initial residual = 0.00766048, Final residual = 4.23724e-05, No Iterations 10
DICPBiCGStab:  Solving for p, Initial residual = 0.310851, Final residual = 0.0029953, No Iterations 36
DICPBiCGStab:  Solving for p, Initial residual = 0.0167935, Final residual = 0.000149286, No Iterations 59
DICPBiCGStab:  Solving for p, Initial residual = 0.0037449, Final residual = 2.08904e-05, No Iterations 93
time step continuity errors : sum local = 2.37889e-06, global = -3.6757e-07, cumulative = 9.44632e-05
smoothSolver:  Solving for nuTilda, Initial residual = 0.00460559, Final residual = 2.61714e-05, No Iterations 10
bounding nuTilda, min: -0.000513179 max: 0.0515942 average: 0.00023923
ExecutionTime = 2.78 s  ClockTime = 3 s

forceCoeffs forceCoeffs write:
    Cm    = 0.0546597
    Cd    = 0.209043
    Cl    = 0.98685
    Cl(f) = 0.548085
    Cl(r) = 0.438765

Time = 26

smoothSolver:  Solving for Ux, Initial residual = 0.00949529, Final residual = 9.1613e-05, No Iterations 8
smoothSolver:  Solving for Uy, Initial residual = 0.0072741, Final residual = 3.7482e-05, No Iterations 10
DICPBiCGStab:  Solving for p, Initial residual = 0.257658, Final residual = 0.00248242, No Iterations 54
DICPBiCGStab:  Solving for p, Initial residual = 0.0122225, Final residual = 3.19145e-05, No Iterations 73
DICPBiCGStab:  Solving for p, Initial residual = 0.00280159, Final residual = 2.19008e-05, No Iterations 56
time step continuity errors : sum local = 3.00542e-06, global = 2.08192e-06, cumulative = 9.65451e-05
smoothSolver:  Solving for nuTilda, Initial residual = 0.00474691, Final residual = 2.79589e-05, No Iterations 10
bounding nuTilda, min: -0.000950778 max: 0.0531701 average: 0.000246468
ExecutionTime = 2.88 s  ClockTime = 3 s

forceCoeffs forceCoeffs write:
    Cm    = 0.00433491
    Cd    = 0.160593
    Cl    = 0.849029
    Cl(f) = 0.42885
    Cl(r) = 0.42018

Time = 27

smoothSolver:  Solving for Ux, Initial residual = 0.0091202, Final residual = 3.76397e-05, No Iterations 10
smoothSolver:  Solving for Uy, Initial residual = 0.00703957, Final residual = 3.34482e-05, No Iterations 10
DICPBiCGStab:  Solving for p, Initial residual = 0.207906, Final residual = 0.0020133, No Iterations 38
DICPBiCGStab:  Solving for p, Initial residual = 0.0138814, Final residual = 7.36274e-05, No Iterations 57
DICPBiCGStab:  Solving for p, Initial residual = 0.00301167, Final residual = 2.96561e-05, No Iterations 47
time step continuity errors : sum local = 3.44447e-06, global = 6.19769e-07, cumulative = 9.71649e-05
smoothSolver:  Solving for nuTilda, Initial residual = 0.00492487, Final residual = 2.97943e-05, No Iterations 10
bounding nuTilda, min: -0.0010451 max: 0.0544926 average: 0.000254054
ExecutionTime = 2.96 s  ClockTime = 3 s

forceCoeffs forceCoeffs write:
    Cm    = -0.0253157
    Cd    = 0.126246
    Cl    = 0.759444
    Cl(f) = 0.354406
    Cl(r) = 0.405038

Time = 28

smoothSolver:  Solving for Ux, Initial residual = 0.00888629, Final residual = 3.87261e-05, No Iterations 10
smoothSolver:  Solving for Uy, Initial residual = 0.00706242, Final residual = 3.17234e-05, No Iterations 10
DICPBiCGStab:  Solving for p, Initial residual = 0.192693, Final residual = 0.00184218, No Iterations 33
DICPBiCGStab:  Solving for p, Initial residual = 0.0146226, Final residual = 0.00010071, No Iterations 71
DICPBiCGStab:  Solving for p, Initial residual = 0.00335099, Final residual = 2.93447e-05, No Iterations 41
time step continuity errors : sum local = 2.66363e-06, global = -2.46628e-06, cumulative = 9.46986e-05
smoothSolver:  Solving for nuTilda, Initial residual = 0.00512265, Final residual = 3.1593e-05, No Iterations 10
bounding nuTilda, min: -0.000692415 max: 0.0556913 average: 0.000261939
ExecutionTime = 3.05 s  ClockTime = 3 s

forceCoeffs forceCoeffs write:
    Cm    = -0.0206102
    Cd    = 0.127514
    Cl    = 0.777138
    Cl(f) = 0.367959
    Cl(r) = 0.409179

Time = 29

smoothSolver:  Solving for Ux, Initial residual = 0.00891219, Final residual = 3.86869e-05, No Iterations 10
smoothSolver:  Solving for Uy, Initial residual = 0.0070583, Final residual = 3.00187e-05, No Iterations 10
DICPBiCGStab:  Solving for p, Initial residual = 0.196502, Final residual = 0.00195051, No Iterations 37
DICPBiCGStab:  Solving for p, Initial residual = 0.0152905, Final residual = 0.00010926, No Iterations 53
DICPBiCGStab:  Solving for p, Initial residual = 0.00340322, Final residual = 3.34167e-05, No Iterations 49
time step continuity errors : sum local = 2.82175e-06, global = -2.82072e-06, cumulative = 9.18778e-05
smoothSolver:  Solving for nuTilda, Initial residual = 0.00532444, Final residual = 3.31126e-05, No Iterations 10
bounding nuTilda, min: -0.00155615 max: 0.0566805 average: 0.000270185
ExecutionTime = 3.14 s  ClockTime = 3 s

forceCoeffs forceCoeffs write:
    Cm    = 0.00194627
    Cd    = 0.15004
    Cl    = 0.854999
    Cl(f) = 0.429446
    Cl(r) = 0.425553

Time = 30

smoothSolver:  Solving for Ux, Initial residual = 0.0090351, Final residual = 8.95354e-05, No Iterations 8
smoothSolver:  Solving for Uy, Initial residual = 0.00706484, Final residual = 2.94651e-05, No Iterations 10
DICPBiCGStab:  Solving for p, Initial residual = 0.199244, Final residual = 0.0019215, No Iterations 37
DICPBiCGStab:  Solving for p, Initial residual = 0.0137971, Final residual = 0.000137674, No Iterations 53
DICPBiCGStab:  Solving for p, Initial residual = 0.00265555, Final residual = 2.51692e-05, No Iterations 43
time step continuity errors : sum local = 2.36216e-06, global = -2.12312e-07, cumulative = 9.16655e-05
smoothSolver:  Solving for nuTilda, Initial residual = 0.00556326, Final residual = 3.40993e-05, No Iterations 10
bounding nuTilda, min: -0.000815222 max: 0.058378 average: 0.000279182
ExecutionTime = 3.22 s  ClockTime = 3 s

forceCoeffs forceCoeffs write:
    Cm    = 0.0214597
    Cd    = 0.167944
    Cl    = 0.916762
    Cl(f) = 0.479841
    Cl(r) = 0.436921

Time = 31

smoothSolver:  Solving for Ux, Initial residual = 0.00915636, Final residual = 8.50476e-05, No Iterations 8
smoothSolver:  Solving for Uy, Initial residual = 0.00701754, Final residual = 2.87765e-05, No Iterations 10
DICPBiCGStab:  Solving for p, Initial residual = 0.189445, Final residual = 0.00178837, No Iterations 33
DICPBiCGStab:  Solving for p, Initial residual = 0.0115782, Final residual = 8.87993e-05, No Iterations 51
DICPBiCGStab:  Solving for p, Initial residual = 0.00207756, Final residual = 1.94315e-05, No Iterations 46
time step continuity errors : sum local = 2.02476e-06, global = 1.77662e-06, cumulative = 9.34422e-05
smoothSolver:  Solving for nuTilda, Initial residual = 0.00571164, Final residual = 3.50757e-05, No Iterations 10
bounding nuTilda, min: -0.00137356 max: 0.0609802 average: 0.000289144
ExecutionTime = 3.29 s  ClockTime = 4 s

forceCoeffs forceCoeffs write:
    Cm    = 0.0282598
    Cd    = 0.16752
    Cl    = 0.924935
    Cl(f) = 0.490727
    Cl(r) = 0.434208

Time = 32

smoothSolver:  Solving for Ux, Initial residual = 0.00918289, Final residual = 8.45831e-05, No Iterations 8
smoothSolver:  Solving for Uy, Initial residual = 0.00694625, Final residual = 2.80851e-05, No Iterations 10
DICPBiCGStab:  Solving for p, Initial residual = 0.175898, Final residual = 0.00170528, No Iterations 28
DICPBiCGStab:  Solving for p, Initial residual = 0.010152, Final residual = 5.7072e-05, No Iterations 68
DICPBiCGStab:  Solving for p, Initial residual = 0.00181849, Final residual = 1.67675e-05, No Iterations 49
time step continuity errors : sum local = 1.80294e-06, global = 9.05281e-07, cumulative = 9.43474e-05
smoothSolver:  Solving for nuTilda, Initial residual = 0.00586741, Final residual = 3.59054e-05, No Iterations 10
bounding nuTilda, min: -0.000973914 max: 0.0631661 average: 0.000300651
ExecutionTime = 3.38 s  ClockTime = 4 s

forceCoeffs forceCoeffs write:
    Cm    = 0.0261341
    Cd    = 0.155574
    Cl    = 0.902131
    Cl(f) = 0.4772
    Cl(r) = 0.424931

Time = 33

smoothSolver:  Solving for Ux, Initial residual = 0.00905224, Final residual = 8.40588e-05, No Iterations 8
smoothSolver:  Solving for Uy, Initial residual = 0.00694011, Final residual = 6.79499e-05, No Iterations 8
DICPBiCGStab:  Solving for p, Initial residual = 0.164235, Final residual = 0.00164171, No Iterations 24
DICPBiCGStab:  Solving for p, Initial residual = 0.00953685, Final residual = 8.06603e-05, No Iterations 56
DICPBiCGStab:  Solving for p, Initial residual = 0.00171832, Final residual = 1.63487e-05, No Iterations 45
time step continuity errors : sum local = 1.70503e-06, global = 5.80956e-07, cumulative = 9.49284e-05
smoothSolver:  Solving for nuTilda, Initial residual = 0.00597923, Final residual = 3.64889e-05, No Iterations 10
bounding nuTilda, min: -0.00100798 max: 0.0649215 average: 0.000313252
ExecutionTime = 3.46 s  ClockTime = 4 s

forceCoeffs forceCoeffs write:
    Cm    = 0.0219141
    Cd    = 0.14597
    Cl    = 0.885736
    Cl(f) = 0.464782
    Cl(r) = 0.420954

Time = 34

smoothSolver:  Solving for Ux, Initial residual = 0.00892273, Final residual = 8.27996e-05, No Iterations 8
smoothSolver:  Solving for Uy, Initial residual = 0.00696221, Final residual = 6.61053e-05, No Iterations 8
DICPBiCGStab:  Solving for p, Initial residual = 0.152347, Final residual = 0.00147571, No Iterations 24
DICPBiCGStab:  Solving for p, Initial residual = 0.00919288, Final residual = 9.17066e-05, No Iterations 56
DICPBiCGStab:  Solving for p, Initial residual = 0.00159719, Final residual = 1.58568e-05, No Iterations 46
time step continuity errors : sum local = 1.5946e-06, global = 6.32828e-07, cumulative = 9.55612e-05
smoothSolver:  Solving for nuTilda, Initial residual = 0.00601617, Final residual = 3.67368e-05, No Iterations 10
bounding nuTilda, min: -0.00128679 max: 0.0663307 average: 0.00032698
ExecutionTime = 3.54 s  ClockTime = 4 s

forceCoeffs forceCoeffs write:
    Cm    = 0.018604
    Cd    = 0.14539
    Cl    = 0.891195
    Cl(f) = 0.464202
    Cl(r) = 0.426994

Time = 35

smoothSolver:  Solving for Ux, Initial residual = 0.00883668, Final residual = 8.06277e-05, No Iterations 8
smoothSolver:  Solving for Uy, Initial residual = 0.00695576, Final residual = 6.394e-05, No Iterations 8
DICPBiCGStab:  Solving for p, Initial residual = 0.146673, Final residual = 0.00139793, No Iterations 31
DICPBiCGStab:  Solving for p, Initial residual = 0.00857697, Final residual = 7.89124e-05, No Iterations 50
DICPBiCGStab:  Solving for p, Initial residual = 0.00149655, Final residual = 1.06014e-05, No Iterations 54
time step continuity errors : sum local = 1.06048e-06, global = 8.33926e-07, cumulative = 9.63951e-05
smoothSolver:  Solving for nuTilda, Initial residual = 0.00610649, Final residual = 3.64839e-05, No Iterations 10
bounding nuTilda, min: -0.000904738 max: 0.0671004 average: 0.000341315
ExecutionTime = 3.62 s  ClockTime = 4 s

forceCoeffs forceCoeffs write:
    Cm    = 0.0161407
    Cd    = 0.150118
    Cl    = 0.907038
    Cl(f) = 0.46966
    Cl(r) = 0.437378

Time = 36

smoothSolver:  Solving for Ux, Initial residual = 0.00877767, Final residual = 7.79453e-05, No Iterations 8
smoothSolver:  Solving for Uy, Initial residual = 0.00689885, Final residual = 6.15035e-05, No Iterations 8
DICPBiCGStab:  Solving for p, Initial residual = 0.145041, Final residual = 0.00139761, No Iterations 26
DICPBiCGStab:  Solving for p, Initial residual = 0.00791076, Final residual = 7.80371e-05, No Iterations 67
DICPBiCGStab:  Solving for p, Initial residual = 0.00130757, Final residual = 1.00907e-05, No Iterations 69
time step continuity errors : sum local = 1.03188e-06, global = 6.01557e-07, cumulative = 9.69967e-05
smoothSolver:  Solving for nuTilda, Initial residual = 0.00612031, Final residual = 3.62857e-05, No Iterations 10
bounding nuTilda, min: -0.000799363 max: 0.0677425 average: 0.000356211
ExecutionTime = 3.72 s  ClockTime = 4 s

forceCoeffs forceCoeffs write:
    Cm    = 0.0139656
    Cd    = 0.152131
    Cl    = 0.913112
    Cl(f) = 0.470522
    Cl(r) = 0.44259

Time = 37

smoothSolver:  Solving for Ux, Initial residual = 0.00872346, Final residual = 7.6077e-05, No Iterations 8
smoothSolver:  Solving for Uy, Initial residual = 0.00685071, Final residual = 5.97511e-05, No Iterations 8
DICPBiCGStab:  Solving for p, Initial residual = 0.138243, Final residual = 0.00130847, No Iterations 24
DICPBiCGStab:  Solving for p, Initial residual = 0.00732088, Final residual = 7.31606e-05, No Iterations 55
DICPBiCGStab:  Solving for p, Initial residual = 0.00115925, Final residual = 1.15903e-05, No Iterations 55
time step continuity errors : sum local = 1.21308e-06, global = 1.17332e-06, cumulative = 9.817e-05
smoothSolver:  Solving for nuTilda, Initial residual = 0.00614874, Final residual = 3.60607e-05, No Iterations 10
bounding nuTilda, min: -0.00173985 max: 0.0703401 average: 0.000371881
ExecutionTime = 3.8 s  ClockTime = 4 s

forceCoeffs forceCoeffs write:
    Cm    = 0.0141857
    Cd    = 0.149452
    Cl    = 0.910764
    Cl(f) = 0.469568
    Cl(r) = 0.441196

Time = 38

smoothSolver:  Solving for Ux, Initial residual = 0.0086353, Final residual = 7.49364e-05, No Iterations 8
smoothSolver:  Solving for Uy, Initial residual = 0.00688592, Final residual = 5.93318e-05, No Iterations 8
DICPBiCGStab:  Solving for p, Initial residual = 0.130356, Final residual = 0.00123358, No Iterations 20
DICPBiCGStab:  Solving for p, Initial residual = 0.00704877, Final residual = 6.66927e-05, No Iterations 66
DICPBiCGStab:  Solving for p, Initial residual = 0.00105546, Final residual = 1.02038e-05, No Iterations 60
time step continuity errors : sum local = 1.09715e-06, global = 9.93437e-07, cumulative = 9.91635e-05
smoothSolver:  Solving for nuTilda, Initial residual = 0.00617346, Final residual = 3.57052e-05, No Iterations 10
bounding nuTilda, min: -0.00257488 max: 0.0723136 average: 0.000388573
ExecutionTime = 3.89 s  ClockTime = 4 s

forceCoeffs forceCoeffs write:
    Cm    = 0.0184646
    Cd    = 0.146014
    Cl    = 0.914604
    Cl(f) = 0.475767
    Cl(r) = 0.438838

Time = 39

smoothSolver:  Solving for Ux, Initial residual = 0.0085378, Final residual = 7.40629e-05, No Iterations 8
smoothSolver:  Solving for Uy, Initial residual = 0.00695302, Final residual = 5.87395e-05, No Iterations 8
DICPBiCGStab:  Solving for p, Initial residual = 0.122651, Final residual = 0.00118093, No Iterations 20
DICPBiCGStab:  Solving for p, Initial residual = 0.00647296, Final residual = 6.39728e-05, No Iterations 60
DICPBiCGStab:  Solving for p, Initial residual = 0.0009487, Final residual = 9.88871e-06, No Iterations 60
time step continuity errors : sum local = 1.10495e-06, global = 8.76117e-07, cumulative = 0.00010004
smoothSolver:  Solving for nuTilda, Initial residual = 0.00612178, Final residual = 3.51884e-05, No Iterations 10
bounding nuTilda, min: -0.00303648 max: 0.0736925 average: 0.000406468
ExecutionTime = 3.96 s  ClockTime = 4 s

forceCoeffs forceCoeffs write:
    Cm    = 0.0249461
    Cd    = 0.145786
    Cl    = 0.931924
    Cl(f) = 0.490908
    Cl(r) = 0.441016

Time = 40

smoothSolver:  Solving for Ux, Initial residual = 0.00845732, Final residual = 7.29821e-05, No Iterations 8
smoothSolver:  Solving for Uy, Initial residual = 0.0069901, Final residual = 5.78772e-05, No Iterations 8
DICPBiCGStab:  Solving for p, Initial residual = 0.115318, Final residual = 0.00110897, No Iterations 20
DICPBiCGStab:  Solving for p, Initial residual = 0.00577412, Final residual = 4.74321e-05, No Iterations 81
DICPBiCGStab:  Solving for p, Initial residual = 0.000849485, Final residual = 9.99088e-06, No Iterations 45
time step continuity errors : sum local = 1.15447e-06, global = 4.61924e-07, cumulative = 0.000100502
smoothSolver:  Solving for nuTilda, Initial residual = 0.00608079, Final residual = 3.46126e-05, No Iterations 10
bounding nuTilda, min: -0.00237667 max: 0.0744564 average: 0.000425625
ExecutionTime = 4.06 s  ClockTime = 4 s

forceCoeffs forceCoeffs write:
    Cm    = 0.0296962
    Cd    = 0.148072
    Cl    = 0.952725
    Cl(f) = 0.506059
    Cl(r) = 0.446666

Time = 41

smoothSolver:  Solving for Ux, Initial residual = 0.00840098, Final residual = 7.17143e-05, No Iterations 8
smoothSolver:  Solving for Uy, Initial residual = 0.00697872, Final residual = 5.65909e-05, No Iterations 8
DICPBiCGStab:  Solving for p, Initial residual = 0.107688, Final residual = 0.00101881, No Iterations 21
DICPBiCGStab:  Solving for p, Initial residual = 0.00518978, Final residual = 4.11318e-05, No Iterations 83
DICPBiCGStab:  Solving for p, Initial residual = 0.000774914, Final residual = 9.95743e-06, No Iterations 51
time step continuity errors : sum local = 1.16446e-06, global = -6.33128e-08, cumulative = 0.000100438
smoothSolver:  Solving for nuTilda, Initial residual = 0.00603268, Final residual = 3.40065e-05, No Iterations 10
bounding nuTilda, min: -0.00212148 max: 0.0752718 average: 0.000445366
ExecutionTime = 4.19 s  ClockTime = 4 s

forceCoeffs forceCoeffs write:
    Cm    = 0.0303901
    Cd    = 0.14955
    Cl    = 0.963177
    Cl(f) = 0.511979
    Cl(r) = 0.451198

Time = 42

smoothSolver:  Solving for Ux, Initial residual = 0.00832962, Final residual = 6.98867e-05, No Iterations 8
smoothSolver:  Solving for Uy, Initial residual = 0.00694152, Final residual = 5.48432e-05, No Iterations 8
DICPBiCGStab:  Solving for p, Initial residual = 0.10161, Final residual = 0.000588521, No Iterations 28
DICPBiCGStab:  Solving for p, Initial residual = 0.00460398, Final residual = 3.89463e-05, No Iterations 80
DICPBiCGStab:  Solving for p, Initial residual = 0.000670502, Final residual = 8.79972e-06, No Iterations 76
time step continuity errors : sum local = 1.03192e-06, global = -4.41015e-07, cumulative = 9.99972e-05
smoothSolver:  Solving for nuTilda, Initial residual = 0.00598731, Final residual = 3.33681e-05, No Iterations 10
bounding nuTilda, min: -0.0017103 max: 0.0774296 average: 0.000465843
ExecutionTime = 4.31 s  ClockTime = 5 s

forceCoeffs forceCoeffs write:
    Cm    = 0.0284933
    Cd    = 0.148983
    Cl    = 0.963661
    Cl(f) = 0.510324
    Cl(r) = 0.453337

Time = 43

smoothSolver:  Solving for Ux, Initial residual = 0.00824233, Final residual = 6.81632e-05, No Iterations 8
smoothSolver:  Solving for Uy, Initial residual = 0.00694909, Final residual = 5.42872e-05, No Iterations 8
DICPBiCGStab:  Solving for p, Initial residual = 0.0964426, Final residual = 0.000956528, No Iterations 16
DICPBiCGStab:  Solving for p, Initial residual = 0.00466167, Final residual = 3.89071e-05, No Iterations 46
DICPBiCGStab:  Solving for p, Initial residual = 0.000617237, Final residual = 9.61916e-06, No Iterations 72
time step continuity errors : sum local = 1.1189e-06, global = -7.04144e-07, cumulative = 9.9293e-05
smoothSolver:  Solving for nuTilda, Initial residual = 0.00593994, Final residual = 3.27231e-05, No Iterations 10
bounding nuTilda, min: -0.00177894 max: 0.079117 average: 0.000486933
ExecutionTime = 4.41 s  ClockTime = 5 s

forceCoeffs forceCoeffs write:
    Cm    = 0.0271175
    Cd    = 0.147511
    Cl    = 0.963666
    Cl(f) = 0.50895
    Cl(r) = 0.454715

Time = 44

smoothSolver:  Solving for Ux, Initial residual = 0.00815687, Final residual = 6.71149e-05, No Iterations 8
smoothSolver:  Solving for Uy, Initial residual = 0.00699876, Final residual = 5.40447e-05, No Iterations 8
DICPBiCGStab:  Solving for p, Initial residual = 0.0906738, Final residual = 0.000851803, No Iterations 17
DICPBiCGStab:  Solving for p, Initial residual = 0.00441681, Final residual = 4.35716e-05, No Iterations 65
DICPBiCGStab:  Solving for p, Initial residual = 0.000576521, Final residual = 9.96644e-06, No Iterations 51
time step continuity errors : sum local = 1.17869e-06, global = 5.20424e-07, cumulative = 9.98135e-05
smoothSolver:  Solving for nuTilda, Initial residual = 0.00587627, Final residual = 3.20908e-05, No Iterations 10
bounding nuTilda, min: -0.0028622 max: 0.0800675 average: 0.000509019
ExecutionTime = 4.53 s  ClockTime = 5 s

forceCoeffs forceCoeffs write:
    Cm    = 0.0276996
    Cd    = 0.145934
    Cl    = 0.967857
    Cl(f) = 0.511628
    Cl(r) = 0.456229

Time = 45

smoothSolver:  Solving for Ux, Initial residual = 0.00808613, Final residual = 6.63816e-05, No Iterations 8
smoothSolver:  Solving for Uy, Initial residual = 0.00705551, Final residual = 5.33223e-05, No Iterations 8
DICPBiCGStab:  Solving for p, Initial residual = 0.0852123, Final residual = 0.000800722, No Iterations 18
DICPBiCGStab:  Solving for p, Initial residual = 0.00411015, Final residual = 3.51689e-05, No Iterations 61
DICPBiCGStab:  Solving for p, Initial residual = 0.000527984, Final residual = 4.10297e-06, No Iterations 74
time step continuity errors : sum local = 4.92932e-07, global = 1.12687e-07, cumulative = 9.99261e-05
smoothSolver:  Solving for nuTilda, Initial residual = 0.00579425, Final residual = 3.14183e-05, No Iterations 10
bounding nuTilda, min: -0.0029385 max: 0.080509 average: 0.000532003
ExecutionTime = 4.62 s  ClockTime = 5 s

forceCoeffs forceCoeffs write:
    Cm    = 0.0298018
    Cd    = 0.14519
    Cl    = 0.976714
    Cl(f) = 0.518159
    Cl(r) = 0.458555

Time = 46

smoothSolver:  Solving for Ux, Initial residual = 0.00802285, Final residual = 6.54988e-05, No Iterations 8
smoothSolver:  Solving for Uy, Initial residual = 0.00707466, Final residual = 5.24201e-05, No Iterations 8
DICPBiCGStab:  Solving for p, Initial residual = 0.0807728, Final residual = 0.000791918, No Iterations 22
DICPBiCGStab:  Solving for p, Initial residual = 0.00383996, Final residual = 2.79608e-05, No Iterations 70
DICPBiCGStab:  Solving for p, Initial residual = 0.000486368, Final residual = 7.5247e-06, No Iterations 58
time step continuity errors : sum local = 9.34089e-07, global = 9.00881e-07, cumulative = 0.000100827
smoothSolver:  Solving for nuTilda, Initial residual = 0.00573371, Final residual = 3.07501e-05, No Iterations 10
bounding nuTilda, min: -0.002544 max: 0.0825699 average: 0.000556367
ExecutionTime = 4.72 s  ClockTime = 5 s

forceCoeffs forceCoeffs write:
    Cm    = 0.0319858
    Cd    = 0.145406
    Cl    = 0.987419
    Cl(f) = 0.525695
    Cl(r) = 0.461723

Time = 47

smoothSolver:  Solving for Ux, Initial residual = 0.00795744, Final residual = 6.41487e-05, No Iterations 8
smoothSolver:  Solving for Uy, Initial residual = 0.00707158, Final residual = 5.17948e-05, No Iterations 8
DICPBiCGStab:  Solving for p, Initial residual = 0.0775433, Final residual = 0.000735216, No Iterations 23
DICPBiCGStab:  Solving for p, Initial residual = 0.0035828, Final residual = 1.81003e-05, No Iterations 80
DICPBiCGStab:  Solving for p, Initial residual = 0.000453302, Final residual = 9.66907e-06, No Iterations 60
time step continuity errors : sum local = 1.22895e-06, global = 6.11168e-07, cumulative = 0.000101438
smoothSolver:  Solving for nuTilda, Initial residual = 0.00567608, Final residual = 3.01348e-05, No Iterations 10
bounding nuTilda, min: -0.00217022 max: 0.0841953 average: 0.000581152
ExecutionTime = 4.82 s  ClockTime = 5 s

forceCoeffs forceCoeffs write:
    Cm    = 0.0328454
    Cd    = 0.145355
    Cl    = 0.995076
    Cl(f) = 0.530383
    Cl(r) = 0.464692

Time = 48

smoothSolver:  Solving for Ux, Initial residual = 0.00788514, Final residual = 6.27758e-05, No Iterations 8
smoothSolver:  Solving for Uy, Initial residual = 0.00709946, Final residual = 5.16681e-05, No Iterations 8
DICPBiCGStab:  Solving for p, Initial residual = 0.0737045, Final residual = 0.000726902, No Iterations 28
DICPBiCGStab:  Solving for p, Initial residual = 0.00349819, Final residual = 3.36332e-05, No Iterations 74
DICPBiCGStab:  Solving for p, Initial residual = 0.00042499, Final residual = 9.9373e-06, No Iterations 51
time step continuity errors : sum local = 1.27699e-06, global = 6.46604e-07, cumulative = 0.000102085
smoothSolver:  Solving for nuTilda, Initial residual = 0.00559482, Final residual = 2.95442e-05, No Iterations 10
bounding nuTilda, min: -0.00163547 max: 0.0850942 average: 0.000606699
ExecutionTime = 4.92 s  ClockTime = 5 s

forceCoeffs forceCoeffs write:
    Cm    = 0.0329173
    Cd    = 0.14442
    Cl    = 0.998595
    Cl(f) = 0.532215
    Cl(r) = 0.46638

Time = 49

smoothSolver:  Solving for Ux, Initial residual = 0.00781, Final residual = 6.15987e-05, No Iterations 8
smoothSolver:  Solving for Uy, Initial residual = 0.00717089, Final residual = 5.16452e-05, No Iterations 8
DICPBiCGStab:  Solving for p, Initial residual = 0.0693259, Final residual = 0.000588277, No Iterations 21
DICPBiCGStab:  Solving for p, Initial residual = 0.00320353, Final residual = 1.97804e-05, No Iterations 77
DICPBiCGStab:  Solving for p, Initial residual = 0.000376074, Final residual = 7.16898e-06, No Iterations 55
time step continuity errors : sum local = 9.30354e-07, global = 6.41226e-07, cumulative = 0.000102726
smoothSolver:  Solving for nuTilda, Initial residual = 0.00551859, Final residual = 2.89713e-05, No Iterations 10
bounding nuTilda, min: -0.00230802 max: 0.0858895 average: 0.000632743
ExecutionTime = 5.01 s  ClockTime = 5 s

forceCoeffs forceCoeffs write:
    Cm    = 0.0342682
    Cd    = 0.143886
    Cl    = 1.00366
    Cl(f) = 0.536098
    Cl(r) = 0.467562

Time = 50

smoothSolver:  Solving for Ux, Initial residual = 0.0077329, Final residual = 6.05937e-05, No Iterations 8
smoothSolver:  Solving for Uy, Initial residual = 0.0072312, Final residual = 5.14172e-05, No Iterations 8
DICPBiCGStab:  Solving for p, Initial residual = 0.0646, Final residual = 0.000626404, No Iterations 34
DICPBiCGStab:  Solving for p, Initial residual = 0.00302771, Final residual = 1.33305e-05, No Iterations 77
DICPBiCGStab:  Solving for p, Initial residual = 0.000340171, Final residual = 6.34249e-06, No Iterations 37
time step continuity errors : sum local = 8.39025e-07, global = 2.15207e-07, cumulative = 0.000102941
smoothSolver:  Solving for nuTilda, Initial residual = 0.00547806, Final residual = 2.846e-05, No Iterations 10
bounding nuTilda, min: -0.00292942 max: 0.0876252 average: 0.000659675
ExecutionTime = 5.11 s  ClockTime = 5 s

forceCoeffs forceCoeffs write:
    Cm    = 0.0375321
    Cd    = 0.144443
    Cl    = 1.01347
    Cl(f) = 0.544266
    Cl(r) = 0.469201

Time = 51

smoothSolver:  Solving for Ux, Initial residual = 0.00765349, Final residual = 5.96197e-05, No Iterations 8
smoothSolver:  Solving for Uy, Initial residual = 0.007258, Final residual = 5.12047e-05, No Iterations 8
DICPBiCGStab:  Solving for p, Initial residual = 0.060775, Final residual = 0.000563717, No Iterations 37
DICPBiCGStab:  Solving for p, Initial residual = 0.00284624, Final residual = 2.82848e-05, No Iterations 64
DICPBiCGStab:  Solving for p, Initial residual = 0.000318686, Final residual = 9.20721e-06, No Iterations 63
time step continuity errors : sum local = 1.23137e-06, global = 2.73432e-07, cumulative = 0.000103215
smoothSolver:  Solving for nuTilda, Initial residual = 0.00540914, Final residual = 2.79406e-05, No Iterations 10
bounding nuTilda, min: -0.00279637 max: 0.0890071 average: 0.000687875
ExecutionTime = 5.22 s  ClockTime = 5 s

forceCoeffs forceCoeffs write:
    Cm    = 0.0410477
    Cd    = 0.145311
    Cl    = 1.02549
    Cl(f) = 0.553793
    Cl(r) = 0.471698

Time = 52

smoothSolver:  Solving for Ux, Initial residual = 0.00757961, Final residual = 5.86187e-05, No Iterations 8
smoothSolver:  Solving for Uy, Initial residual = 0.00725702, Final residual = 5.10015e-05, No Iterations 8
DICPBiCGStab:  Solving for p, Initial residual = 0.0581109, Final residual = 0.000572974, No Iterations 35
DICPBiCGStab:  Solving for p, Initial residual = 0.00275167, Final residual = 1.65336e-05, No Iterations 83
DICPBiCGStab:  Solving for p, Initial residual = 0.000364331, Final residual = 7.97778e-06, No Iterations 41
time step continuity errors : sum local = 1.09325e-06, global = 1.65505e-07, cumulative = 0.00010338
smoothSolver:  Solving for nuTilda, Initial residual = 0.00532798, Final residual = 2.74456e-05, No Iterations 10
bounding nuTilda, min: -0.00232297 max: 0.0896932 average: 0.000716848
ExecutionTime = 5.35 s  ClockTime = 6 s

forceCoeffs forceCoeffs write:
    Cm    = 0.0429584
    Cd    = 0.145236
    Cl    = 1.03404
    Cl(f) = 0.559976
    Cl(r) = 0.47406

Time = 53

smoothSolver:  Solving for Ux, Initial residual = 0.00750681, Final residual = 5.75887e-05, No Iterations 8
smoothSolver:  Solving for Uy, Initial residual = 0.00728832, Final residual = 5.07332e-05, No Iterations 8
DICPBiCGStab:  Solving for p, Initial residual = 0.0551205, Final residual = 0.000512256, No Iterations 25
DICPBiCGStab:  Solving for p, Initial residual = 0.00260561, Final residual = 2.12275e-05, No Iterations 83
DICPBiCGStab:  Solving for p, Initial residual = 0.000281019, Final residual = 8.03838e-06, No Iterations 79
time step continuity errors : sum local = 1.11298e-06, global = -1.32706e-07, cumulative = 0.000103247
smoothSolver:  Solving for nuTilda, Initial residual = 0.00526068, Final residual = 2.70085e-05, No Iterations 10
bounding nuTilda, min: -0.00167874 max: 0.0911314 average: 0.000746238
ExecutionTime = 5.47 s  ClockTime = 6 s

forceCoeffs forceCoeffs write:
    Cm    = 0.0429024
    Cd    = 0.14393
    Cl    = 1.03666
    Cl(f) = 0.561232
    Cl(r) = 0.475427

Time = 54

smoothSolver:  Solving for Ux, Initial residual = 0.00742644, Final residual = 5.64996e-05, No Iterations 8
smoothSolver:  Solving for Uy, Initial residual = 0.00735075, Final residual = 5.07589e-05, No Iterations 8
DICPBiCGStab:  Solving for p, Initial residual = 0.0521518, Final residual = 0.000511001, No Iterations 24
DICPBiCGStab:  Solving for p, Initial residual = 0.00257212, Final residual = 2.24243e-05, No Iterations 68
DICPBiCGStab:  Solving for p, Initial residual = 0.000279153, Final residual = 8.86614e-06, No Iterations 46
time step continuity errors : sum local = 1.2426e-06, global = 5.22142e-07, cumulative = 0.00010377
smoothSolver:  Solving for nuTilda, Initial residual = 0.00522361, Final residual = 2.65938e-05, No Iterations 10
bounding nuTilda, min: -0.00242253 max: 0.0925189 average: 0.000776267
ExecutionTime = 5.56 s  ClockTime = 6 s

forceCoeffs forceCoeffs write:
    Cm    = 0.0421534
    Cd    = 0.142243
    Cl    = 1.03736
    Cl(f) = 0.560831
    Cl(r) = 0.476524

Time = 55

smoothSolver:  Solving for Ux, Initial residual = 0.00734012, Final residual = 5.54381e-05, No Iterations 8
smoothSolver:  Solving for Uy, Initial residual = 0.00739848, Final residual = 5.09505e-05, No Iterations 8
DICPBiCGStab:  Solving for p, Initial residual = 0.0497247, Final residual = 0.00043732, No Iterations 23
DICPBiCGStab:  Solving for p, Initial residual = 0.00241727, Final residual = 2.22468e-05, No Iterations 61
DICPBiCGStab:  Solving for p, Initial residual = 0.000263033, Final residual = 9.88809e-06, No Iterations 68
time step continuity errors : sum local = 1.4049e-06, global = 1.40149e-06, cumulative = 0.000105171
smoothSolver:  Solving for nuTilda, Initial residual = 0.00516417, Final residual = 2.61759e-05, No Iterations 10
bounding nuTilda, min: -0.00291555 max: 0.0934355 average: 0.000807203
ExecutionTime = 5.65 s  ClockTime = 6 s

forceCoeffs forceCoeffs write:
    Cm    = 0.0425416
    Cd    = 0.141456
    Cl    = 1.04144
    Cl(f) = 0.563262
    Cl(r) = 0.478178

Time = 56

smoothSolver:  Solving for Ux, Initial residual = 0.00725852, Final residual = 5.45575e-05, No Iterations 8
smoothSolver:  Solving for Uy, Initial residual = 0.00742163, Final residual = 5.10742e-05, No Iterations 8
DICPBiCGStab:  Solving for p, Initial residual = 0.0470195, Final residual = 0.000441391, No Iterations 22
DICPBiCGStab:  Solving for p, Initial residual = 0.00231559, Final residual = 2.25709e-05, No Iterations 72
DICPBiCGStab:  Solving for p, Initial residual = 0.000251334, Final residual = 8.2942e-06, No Iterations 52
time step continuity errors : sum local = 1.21118e-06, global = 4.95851e-07, cumulative = 0.000105667
smoothSolver:  Solving for nuTilda, Initial residual = 0.00508827, Final residual = 2.58051e-05, No Iterations 10
bounding nuTilda, min: -0.00270596 max: 0.0944336 average: 0.00083915
ExecutionTime = 5.74 s  ClockTime = 6 s

forceCoeffs forceCoeffs write:
    Cm    = 0.0445535
    Cd    = 0.141316
    Cl    = 1.04887
    Cl(f) = 0.568986
    Cl(r) = 0.479879

Time = 57

smoothSolver:  Solving for Ux, Initial residual = 0.00717904, Final residual = 5.37595e-05, No Iterations 8
smoothSolver:  Solving for Uy, Initial residual = 0.00745712, Final residual = 5.09919e-05, No Iterations 8
DICPBiCGStab:  Solving for p, Initial residual = 0.0442523, Final residual = 0.000416614, No Iterations 21
DICPBiCGStab:  Solving for p, Initial residual = 0.00221683, Final residual = 1.991e-05, No Iterations 69
DICPBiCGStab:  Solving for p, Initial residual = 0.000244265, Final residual = 8.60538e-06, No Iterations 39
time step continuity errors : sum local = 1.27183e-06, global = 9.26324e-08, cumulative = 0.00010576
smoothSolver:  Solving for nuTilda, Initial residual = 0.00505167, Final residual = 2.54336e-05, No Iterations 10
bounding nuTilda, min: -0.00204658 max: 0.0959957 average: 0.000871689
ExecutionTime = 5.82 s  ClockTime = 6 s

forceCoeffs forceCoeffs write:
    Cm    = 0.0477109
    Cd    = 0.141421
    Cl    = 1.05749
    Cl(f) = 0.576457
    Cl(r) = 0.481036

Time = 58

smoothSolver:  Solving for Ux, Initial residual = 0.00709917, Final residual = 5.29054e-05, No Iterations 8
smoothSolver:  Solving for Uy, Initial residual = 0.00750554, Final residual = 5.1e-05, No Iterations 8
DICPBiCGStab:  Solving for p, Initial residual = 0.0428079, Final residual = 0.000425889, No Iterations 20
DICPBiCGStab:  Solving for p, Initial residual = 0.00220462, Final residual = 1.50938e-05, No Iterations 69
DICPBiCGStab:  Solving for p, Initial residual = 0.000241178, Final residual = 9.98616e-06, No Iterations 41
time step continuity errors : sum local = 1.49093e-06, global = 1.96923e-07, cumulative = 0.000105956
smoothSolver:  Solving for nuTilda, Initial residual = 0.00500683, Final residual = 2.5098e-05, No Iterations 10
bounding nuTilda, min: -0.00226408 max: 0.096987 average: 0.000904615
ExecutionTime = 5.9 s  ClockTime = 6 s

forceCoeffs forceCoeffs write:
    Cm    = 0.0509416
    Cd    = 0.141595
    Cl    = 1.06587
    Cl(f) = 0.583879
    Cl(r) = 0.481995

Time = 59

smoothSolver:  Solving for Ux, Initial residual = 0.00701398, Final residual = 5.20025e-05, No Iterations 8
smoothSolver:  Solving for Uy, Initial residual = 0.0075283, Final residual = 5.10757e-05, No Iterations 8
DICPBiCGStab:  Solving for p, Initial residual = 0.0414813, Final residual = 0.000412991, No Iterations 19
DICPBiCGStab:  Solving for p, Initial residual = 0.002147, Final residual = 1.9327e-05, No Iterations 66
DICPBiCGStab:  Solving for p, Initial residual = 0.000221843, Final residual = 9.66844e-06, No Iterations 36
time step continuity errors : sum local = 1.46307e-06, global = 3.16722e-07, cumulative = 0.000106273
smoothSolver:  Solving for nuTilda, Initial residual = 0.00494995, Final residual = 2.47832e-05, No Iterations 10
bounding nuTilda, min: -0.00294711 max: 0.0979326 average: 0.000938259
ExecutionTime = 5.97 s  ClockTime = 6 s

forceCoeffs forceCoeffs write:
    Cm    = 0.0530983
    Cd    = 0.141523
    Cl    = 1.07254
    Cl(f) = 0.58937
    Cl(r) = 0.483174

Time = 60

smoothSolver:  Solving for Ux, Initial residual = 0.00693153, Final residual = 5.116e-05, No Iterations 8
smoothSolver:  Solving for Uy, Initial residual = 0.00754594, Final residual = 5.11311e-05, No Iterations 8
DICPBiCGStab:  Solving for p, Initial residual = 0.0394812, Final residual = 0.000346195, No Iterations 27
DICPBiCGStab:  Solving for p, Initial residual = 0.00203127, Final residual = 1.90398e-05, No Iterations 59
DICPBiCGStab:  Solving for p, Initial residual = 0.000239068, Final residual = 9.92028e-06, No Iterations 76
time step continuity errors : sum local = 1.52397e-06, global = 1.31297e-06, cumulative = 0.000107586
smoothSolver:  Solving for nuTilda, Initial residual = 0.00490576, Final residual = 2.44524e-05, No Iterations 10
bounding nuTilda, min: -0.00286199 max: 0.0993948 average: 0.000972793
ExecutionTime = 6.06 s  ClockTime = 6 s

forceCoeffs forceCoeffs write:
    Cm    = 0.0537744
    Cd    = 0.141005
    Cl    = 1.0774
    Cl(f) = 0.592477
    Cl(r) = 0.484928

Time = 61

smoothSolver:  Solving for Ux, Initial residual = 0.00685027, Final residual = 5.04397e-05, No Iterations 8
smoothSolver:  Solving for Uy, Initial residual = 0.00759874, Final residual = 5.10909e-05, No Iterations 8
DICPBiCGStab:  Solving for p, Initial residual = 0.0378808, Final residual = 0.000227498, No Iterations 28
DICPBiCGStab:  Solving for p, Initial residual = 0.00189726, Final residual = 7.4811e-06, No Iterations 79
DICPBiCGStab:  Solving for p, Initial residual = 0.000211186, Final residual = 9.52083e-06, No Iterations 30
time step continuity errors : sum local = 1.49332e-06, global = 2.95954e-07, cumulative = 0.000107882
smoothSolver:  Solving for nuTilda, Initial residual = 0.00486859, Final residual = 2.41716e-05, No Iterations 10
bounding nuTilda, min: -0.00214938 max: 0.100248 average: 0.00100802
ExecutionTime = 6.14 s  ClockTime = 6 s

forceCoeffs forceCoeffs write:
    Cm    = 0.0534322
    Cd    = 0.139839
    Cl    = 1.08003
    Cl(f) = 0.593448
    Cl(r) = 0.486583

Time = 62

smoothSolver:  Solving for Ux, Initial residual = 0.00677374, Final residual = 4.97724e-05, No Iterations 8
smoothSolver:  Solving for Uy, Initial residual = 0.00764953, Final residual = 5.12075e-05, No Iterations 8
DICPBiCGStab:  Solving for p, Initial residual = 0.0357976, Final residual = 0.000233014, No Iterations 25
DICPBiCGStab:  Solving for p, Initial residual = 0.00182363, Final residual = 1.81936e-05, No Iterations 70
DICPBiCGStab:  Solving for p, Initial residual = 0.000191586, Final residual = 9.60105e-06, No Iterations 32
time step continuity errors : sum local = 1.52254e-06, global = -2.03549e-08, cumulative = 0.000107862
smoothSolver:  Solving for nuTilda, Initial residual = 0.00482302, Final residual = 2.38895e-05, No Iterations 10
bounding nuTilda, min: -0.00257177 max: 0.101401 average: 0.00104347
ExecutionTime = 6.22 s  ClockTime = 7 s

forceCoeffs forceCoeffs write:
    Cm    = 0.0536563
    Cd    = 0.138661
    Cl    = 1.08249
    Cl(f) = 0.594901
    Cl(r) = 0.487589

Time = 63

smoothSolver:  Solving for Ux, Initial residual = 0.00669518, Final residual = 4.90851e-05, No Iterations 8
smoothSolver:  Solving for Uy, Initial residual = 0.00767501, Final residual = 5.14516e-05, No Iterations 8
DICPBiCGStab:  Solving for p, Initial residual = 0.0344154, Final residual = 0.000256758, No Iterations 23
DICPBiCGStab:  Solving for p, Initial residual = 0.00180413, Final residual = 1.22138e-05, No Iterations 70
DICPBiCGStab:  Solving for p, Initial residual = 0.000187068, Final residual = 7.82848e-06, No Iterations 44
time step continuity errors : sum local = 1.25451e-06, global = 5.40833e-07, cumulative = 0.000108403
smoothSolver:  Solving for nuTilda, Initial residual = 0.00478293, Final residual = 2.36311e-05, No Iterations 10
bounding nuTilda, min: -0.00278391 max: 0.102656 average: 0.00107962
ExecutionTime = 6.3 s  ClockTime = 7 s

forceCoeffs forceCoeffs write:
    Cm    = 0.0553331
    Cd    = 0.13804
    Cl    = 1.08725
    Cl(f) = 0.598958
    Cl(r) = 0.488291

Time = 64

smoothSolver:  Solving for Ux, Initial residual = 0.00661807, Final residual = 4.8478e-05, No Iterations 8
smoothSolver:  Solving for Uy, Initial residual = 0.00768962, Final residual = 5.15388e-05, No Iterations 8
DICPBiCGStab:  Solving for p, Initial residual = 0.0334877, Final residual = 0.000302804, No Iterations 22
DICPBiCGStab:  Solving for p, Initial residual = 0.00182198, Final residual = 1.79391e-05, No Iterations 70
DICPBiCGStab:  Solving for p, Initial residual = 0.00018876, Final residual = 9.2704e-06, No Iterations 52
time step continuity errors : sum local = 1.50455e-06, global = 7.19834e-07, cumulative = 0.000109122
smoothSolver:  Solving for nuTilda, Initial residual = 0.00475638, Final residual = 2.33776e-05, No Iterations 10
bounding nuTilda, min: -0.00281198 max: 0.10363 average: 0.00111647
ExecutionTime = 6.39 s  ClockTime = 7 s

forceCoeffs forceCoeffs write:
    Cm    = 0.0580065
    Cd    = 0.137819
    Cl    = 1.09407
    Cl(f) = 0.605042
    Cl(r) = 0.489029

Time = 65

smoothSolver:  Solving for Ux, Initial residual = 0.00654374, Final residual = 4.79479e-05, No Iterations 8
smoothSolver:  Solving for Uy, Initial residual = 0.00774051, Final residual = 5.14251e-05, No Iterations 8
DICPBiCGStab:  Solving for p, Initial residual = 0.0324708, Final residual = 0.000237936, No Iterations 29
DICPBiCGStab:  Solving for p, Initial residual = 0.00172856, Final residual = 1.39171e-05, No Iterations 63
[...]
ExecutionTime = 84.53 s  ClockTime = 86 s

forceCoeffs forceCoeffs write:
    Cm    = -0.0115247
    Cd    = 0.0351516
    Cl    = 1.48565
    Cl(f) = 0.731299
    Cl(r) = 0.754348

Time = 1985

smoothSolver:  Solving for Ux, Initial residual = 1.12283e-05, Final residual = 3.94322e-06, No Iterations 2
smoothSolver:  Solving for Uy, Initial residual = 1.06502e-05, Final residual = 3.90108e-06, No Iterations 2
DICPBiCGStab:  Solving for p, Initial residual = 9.54681e-05, Final residual = 8.97379e-06, No Iterations 4
DICPBiCGStab:  Solving for p, Initial residual = 1.05438e-05, Final residual = 9.79007e-06, No Iterations 1
DICPBiCGStab:  Solving for p, Initial residual = 9.80163e-06, Final residual = 9.80163e-06, No Iterations 0
time step continuity errors : sum local = 2.7227e-06, global = -1.16477e-07, cumulative = 0.000234104
smoothSolver:  Solving for nuTilda, Initial residual = 0.00105398, Final residual = 1.73565e-06, No Iterations 6
bounding nuTilda, min: -0.000172288 max: 0.0248155 average: 0.000497161
ExecutionTime = 84.56 s  ClockTime = 86 s

forceCoeffs forceCoeffs write:
    Cm    = -0.0115225
    Cd    = 0.0351535
    Cl    = 1.48565
    Cl(f) = 0.731303
    Cl(r) = 0.754348

Time = 1986

smoothSolver:  Solving for Ux, Initial residual = 8.52403e-06, Final residual = 8.52403e-06, No Iterations 0
smoothSolver:  Solving for Uy, Initial residual = 9.55556e-06, Final residual = 9.55556e-06, No Iterations 0
DICPBiCGStab:  Solving for p, Initial residual = 8.77825e-05, Final residual = 9.62913e-06, No Iterations 4
DICPBiCGStab:  Solving for p, Initial residual = 1.08209e-05, Final residual = 9.53908e-06, No Iterations 1
DICPBiCGStab:  Solving for p, Initial residual = 9.5274e-06, Final residual = 9.5274e-06, No Iterations 0
time step continuity errors : sum local = 2.64654e-06, global = -2.21896e-07, cumulative = 0.000233882
smoothSolver:  Solving for nuTilda, Initial residual = 0.00104929, Final residual = 1.75096e-06, No Iterations 6
bounding nuTilda, min: -0.000177918 max: 0.0248148 average: 0.0004972
ExecutionTime = 84.59 s  ClockTime = 86 s

forceCoeffs forceCoeffs write:
    Cm    = -0.0115241
    Cd    = 0.0351526
    Cl    = 1.48565
    Cl(f) = 0.7313
    Cl(r) = 0.754348

Time = 1987

smoothSolver:  Solving for Ux, Initial residual = 1.14023e-05, Final residual = 3.98617e-06, No Iterations 2
smoothSolver:  Solving for Uy, Initial residual = 1.03335e-05, Final residual = 3.76973e-06, No Iterations 2
DICPBiCGStab:  Solving for p, Initial residual = 9.34607e-05, Final residual = 9.32631e-06, No Iterations 3
DICPBiCGStab:  Solving for p, Initial residual = 1.05777e-05, Final residual = 9.67606e-06, No Iterations 1
DICPBiCGStab:  Solving for p, Initial residual = 9.6461e-06, Final residual = 9.6461e-06, No Iterations 0
time step continuity errors : sum local = 2.6796e-06, global = 1.76896e-07, cumulative = 0.000234059
smoothSolver:  Solving for nuTilda, Initial residual = 0.001062, Final residual = 1.74584e-06, No Iterations 6
bounding nuTilda, min: -0.000172271 max: 0.0248142 average: 0.000497162
ExecutionTime = 84.62 s  ClockTime = 86 s

forceCoeffs forceCoeffs write:
    Cm    = -0.0115232
    Cd    = 0.0351538
    Cl    = 1.48565
    Cl(f) = 0.731302
    Cl(r) = 0.754348

Time = 1988

smoothSolver:  Solving for Ux, Initial residual = 8.54838e-06, Final residual = 8.54838e-06, No Iterations 0
smoothSolver:  Solving for Uy, Initial residual = 9.20588e-06, Final residual = 9.20588e-06, No Iterations 0
DICPBiCGStab:  Solving for p, Initial residual = 8.4302e-05, Final residual = 9.02736e-06, No Iterations 4
DICPBiCGStab:  Solving for p, Initial residual = 1.03146e-05, Final residual = 8.8354e-06, No Iterations 1
DICPBiCGStab:  Solving for p, Initial residual = 8.83942e-06, Final residual = 8.83942e-06, No Iterations 0
time step continuity errors : sum local = 2.45561e-06, global = 3.46005e-07, cumulative = 0.000234405
smoothSolver:  Solving for nuTilda, Initial residual = 0.00105192, Final residual = 1.74743e-06, No Iterations 6
bounding nuTilda, min: -0.00017229 max: 0.0248138 average: 0.000497208
ExecutionTime = 84.65 s  ClockTime = 86 s

forceCoeffs forceCoeffs write:
    Cm    = -0.0115256
    Cd    = 0.0351525
    Cl    = 1.48565
    Cl(f) = 0.731298
    Cl(r) = 0.754349

Time = 1989

smoothSolver:  Solving for Ux, Initial residual = 1.12455e-05, Final residual = 3.87237e-06, No Iterations 2
smoothSolver:  Solving for Uy, Initial residual = 9.87895e-06, Final residual = 9.87895e-06, No Iterations 0
DICPBiCGStab:  Solving for p, Initial residual = 9.87966e-05, Final residual = 9.99792e-06, No Iterations 4
DICPBiCGStab:  Solving for p, Initial residual = 1.11434e-05, Final residual = 8.81542e-06, No Iterations 1
DICPBiCGStab:  Solving for p, Initial residual = 8.82751e-06, Final residual = 8.82751e-06, No Iterations 0
time step continuity errors : sum local = 2.45211e-06, global = 5.75477e-08, cumulative = 0.000234462
smoothSolver:  Solving for nuTilda, Initial residual = 0.001052, Final residual = 1.74263e-06, No Iterations 6
bounding nuTilda, min: -0.000177916 max: 0.0248136 average: 0.000497157
ExecutionTime = 84.68 s  ClockTime = 86 s

forceCoeffs forceCoeffs write:
    Cm    = -0.0115251
    Cd    = 0.0351537
    Cl    = 1.48565
    Cl(f) = 0.731299
    Cl(r) = 0.754349

Time = 1990

smoothSolver:  Solving for Ux, Initial residual = 7.5298e-06, Final residual = 7.5298e-06, No Iterations 0
smoothSolver:  Solving for Uy, Initial residual = 1.04783e-05, Final residual = 3.83892e-06, No Iterations 2
DICPBiCGStab:  Solving for p, Initial residual = 0.000102616, Final residual = 9.82092e-06, No Iterations 4
DICPBiCGStab:  Solving for p, Initial residual = 1.12542e-05, Final residual = 9.72239e-06, No Iterations 1
DICPBiCGStab:  Solving for p, Initial residual = 9.7131e-06, Final residual = 9.7131e-06, No Iterations 0
time step continuity errors : sum local = 2.69815e-06, global = 1.41373e-08, cumulative = 0.000234477
smoothSolver:  Solving for nuTilda, Initial residual = 0.00105646, Final residual = 1.75478e-06, No Iterations 6
bounding nuTilda, min: -0.000172293 max: 0.0248137 average: 0.000497202
ExecutionTime = 84.71 s  ClockTime = 86 s

forceCoeffs forceCoeffs write:
    Cm    = -0.0115289
    Cd    = 0.0351517
    Cl    = 1.48564
    Cl(f) = 0.731293
    Cl(r) = 0.754351

Time = 1991

smoothSolver:  Solving for Ux, Initial residual = 1.01832e-05, Final residual = 3.44961e-06, No Iterations 2
smoothSolver:  Solving for Uy, Initial residual = 9.55909e-06, Final residual = 9.55909e-06, No Iterations 0
DICPBiCGStab:  Solving for p, Initial residual = 7.80144e-05, Final residual = 9.3752e-06, No Iterations 4
DICPBiCGStab:  Solving for p, Initial residual = 1.04711e-05, Final residual = 9.73851e-06, No Iterations 1
DICPBiCGStab:  Solving for p, Initial residual = 9.73437e-06, Final residual = 9.73437e-06, No Iterations 0
time step continuity errors : sum local = 2.7041e-06, global = 3.59645e-07, cumulative = 0.000234836
smoothSolver:  Solving for nuTilda, Initial residual = 0.00105648, Final residual = 1.73461e-06, No Iterations 6
bounding nuTilda, min: -0.000172277 max: 0.0248139 average: 0.000497162
ExecutionTime = 84.75 s  ClockTime = 86 s

forceCoeffs forceCoeffs write:
    Cm    = -0.0115292
    Cd    = 0.0351524
    Cl    = 1.48564
    Cl(f) = 0.731293
    Cl(r) = 0.754352

Time = 1992

smoothSolver:  Solving for Ux, Initial residual = 7.32424e-06, Final residual = 7.32424e-06, No Iterations 0
smoothSolver:  Solving for Uy, Initial residual = 9.99703e-06, Final residual = 9.99703e-06, No Iterations 0
DICPBiCGStab:  Solving for p, Initial residual = 7.34136e-05, Final residual = 9.667e-06, No Iterations 4
DICPBiCGStab:  Solving for p, Initial residual = 1.08528e-05, Final residual = 9.4386e-06, No Iterations 1
DICPBiCGStab:  Solving for p, Initial residual = 9.43656e-06, Final residual = 9.43656e-06, No Iterations 0
time step continuity errors : sum local = 2.62146e-06, global = 4.66978e-07, cumulative = 0.000235303
smoothSolver:  Solving for nuTilda, Initial residual = 0.00104982, Final residual = 1.75693e-06, No Iterations 6
bounding nuTilda, min: -0.000177908 max: 0.0248144 average: 0.000497204
ExecutionTime = 84.78 s  ClockTime = 86 s

forceCoeffs forceCoeffs write:
    Cm    = -0.0115326
    Cd    = 0.0351507
    Cl    = 1.48564
    Cl(f) = 0.731288
    Cl(r) = 0.754353

Time = 1993

smoothSolver:  Solving for Ux, Initial residual = 9.09584e-06, Final residual = 9.09584e-06, No Iterations 0
smoothSolver:  Solving for Uy, Initial residual = 1.07137e-05, Final residual = 3.92146e-06, No Iterations 2
DICPBiCGStab:  Solving for p, Initial residual = 0.000101587, Final residual = 9.63262e-06, No Iterations 4
DICPBiCGStab:  Solving for p, Initial residual = 1.05678e-05, Final residual = 9.0168e-06, No Iterations 1
DICPBiCGStab:  Solving for p, Initial residual = 9.03759e-06, Final residual = 9.03759e-06, No Iterations 0
time step continuity errors : sum local = 2.51057e-06, global = 4.14279e-07, cumulative = 0.000235717
smoothSolver:  Solving for nuTilda, Initial residual = 0.00105904, Final residual = 1.73927e-06, No Iterations 6
bounding nuTilda, min: -0.000172298 max: 0.024815 average: 0.000497159
ExecutionTime = 84.82 s  ClockTime = 86 s

forceCoeffs forceCoeffs write:
    Cm    = -0.0115331
    Cd    = 0.0351514
    Cl    = 1.48564
    Cl(f) = 0.731288
    Cl(r) = 0.754355

Time = 1994

smoothSolver:  Solving for Ux, Initial residual = 1.05656e-05, Final residual = 3.58314e-06, No Iterations 2
smoothSolver:  Solving for Uy, Initial residual = 9.56485e-06, Final residual = 9.56485e-06, No Iterations 0
DICPBiCGStab:  Solving for p, Initial residual = 9.41137e-05, Final residual = 9.78048e-06, No Iterations 5
DICPBiCGStab:  Solving for p, Initial residual = 1.19437e-05, Final residual = 9.6708e-06, No Iterations 1
DICPBiCGStab:  Solving for p, Initial residual = 9.68683e-06, Final residual = 9.68683e-06, No Iterations 0
time step continuity errors : sum local = 2.69085e-06, global = 1.06199e-07, cumulative = 0.000235824
smoothSolver:  Solving for nuTilda, Initial residual = 0.00105088, Final residual = 1.75177e-06, No Iterations 6
bounding nuTilda, min: -0.000172334 max: 0.0248158 average: 0.000497203
ExecutionTime = 84.86 s  ClockTime = 86 s

forceCoeffs forceCoeffs write:
    Cm    = -0.0115402
    Cd    = 0.0351478
    Cl    = 1.48563
    Cl(f) = 0.731277
    Cl(r) = 0.754357

Time = 1995

smoothSolver:  Solving for Ux, Initial residual = 8.74687e-06, Final residual = 8.74687e-06, No Iterations 0
smoothSolver:  Solving for Uy, Initial residual = 1.03171e-05, Final residual = 3.79855e-06, No Iterations 2
DICPBiCGStab:  Solving for p, Initial residual = 9.6625e-05, Final residual = 9.97636e-06, No Iterations 5
DICPBiCGStab:  Solving for p, Initial residual = 1.09535e-05, Final residual = 9.51362e-06, No Iterations 1
DICPBiCGStab:  Solving for p, Initial residual = 9.52681e-06, Final residual = 9.52681e-06, No Iterations 0
time step continuity errors : sum local = 2.64635e-06, global = 4.9086e-08, cumulative = 0.000235873
smoothSolver:  Solving for nuTilda, Initial residual = 0.00105449, Final residual = 1.74145e-06, No Iterations 6
bounding nuTilda, min: -0.000177904 max: 0.0248167 average: 0.000497161
ExecutionTime = 84.89 s  ClockTime = 86 s

forceCoeffs forceCoeffs write:
    Cm    = -0.0115403
    Cd    = 0.035149
    Cl    = 1.48564
    Cl(f) = 0.731279
    Cl(r) = 0.754359

Time = 1996

smoothSolver:  Solving for Ux, Initial residual = 1.18727e-05, Final residual = 4.09494e-06, No Iterations 2
smoothSolver:  Solving for Uy, Initial residual = 9.62374e-06, Final residual = 9.62374e-06, No Iterations 0
DICPBiCGStab:  Solving for p, Initial residual = 0.000100867, Final residual = 9.65969e-06, No Iterations 6
DICPBiCGStab:  Solving for p, Initial residual = 1.13527e-05, Final residual = 9.2284e-06, No Iterations 1
DICPBiCGStab:  Solving for p, Initial residual = 9.23923e-06, Final residual = 9.23923e-06, No Iterations 0
time step continuity errors : sum local = 2.56671e-06, global = 5.5627e-07, cumulative = 0.000236429
smoothSolver:  Solving for nuTilda, Initial residual = 0.00105761, Final residual = 1.75509e-06, No Iterations 6
bounding nuTilda, min: -0.000172362 max: 0.0248177 average: 0.000497211
ExecutionTime = 84.93 s  ClockTime = 86 s

forceCoeffs forceCoeffs write:
    Cm    = -0.0115461
    Cd    = 0.0351461
    Cl    = 1.48563
    Cl(f) = 0.73127
    Cl(r) = 0.754362

Time = 1997

smoothSolver:  Solving for Ux, Initial residual = 8.73204e-06, Final residual = 8.73204e-06, No Iterations 0
smoothSolver:  Solving for Uy, Initial residual = 1.01138e-05, Final residual = 3.68361e-06, No Iterations 2
DICPBiCGStab:  Solving for p, Initial residual = 9.7005e-05, Final residual = 9.72892e-06, No Iterations 6
DICPBiCGStab:  Solving for p, Initial residual = 1.11731e-05, Final residual = 9.56135e-06, No Iterations 1
DICPBiCGStab:  Solving for p, Initial residual = 9.56387e-06, Final residual = 9.56387e-06, No Iterations 0
time step continuity errors : sum local = 2.6569e-06, global = 6.04621e-07, cumulative = 0.000237034
smoothSolver:  Solving for nuTilda, Initial residual = 0.00105363, Final residual = 1.73756e-06, No Iterations 6
bounding nuTilda, min: -0.000172354 max: 0.0248188 average: 0.000497163
ExecutionTime = 84.97 s  ClockTime = 86 s

forceCoeffs forceCoeffs write:
    Cm    = -0.0115436
    Cd    = 0.0351485
    Cl    = 1.48564
    Cl(f) = 0.731276
    Cl(r) = 0.754363

Time = 1998

smoothSolver:  Solving for Ux, Initial residual = 1.22108e-05, Final residual = 4.26767e-06, No Iterations 2
smoothSolver:  Solving for Uy, Initial residual = 9.5318e-06, Final residual = 9.5318e-06, No Iterations 0
DICPBiCGStab:  Solving for p, Initial residual = 0.000104588, Final residual = 9.64404e-06, No Iterations 5
DICPBiCGStab:  Solving for p, Initial residual = 1.10124e-05, Final residual = 9.62879e-06, No Iterations 1
DICPBiCGStab:  Solving for p, Initial residual = 9.64107e-06, Final residual = 9.64107e-06, No Iterations 0
time step continuity errors : sum local = 2.67822e-06, global = 2.66764e-08, cumulative = 0.00023706
smoothSolver:  Solving for nuTilda, Initial residual = 0.00104879, Final residual = 1.75108e-06, No Iterations 6
bounding nuTilda, min: -0.000177897 max: 0.0248198 average: 0.000497199
ExecutionTime = 85 s  ClockTime = 86 s

forceCoeffs forceCoeffs write:
    Cm    = -0.0115461
    Cd    = 0.0351469
    Cl    = 1.48564
    Cl(f) = 0.731272
    Cl(r) = 0.754364

Time = 1999

smoothSolver:  Solving for Ux, Initial residual = 8.6509e-06, Final residual = 8.6509e-06, No Iterations 0
smoothSolver:  Solving for Uy, Initial residual = 9.83496e-06, Final residual = 9.83496e-06, No Iterations 0
DICPBiCGStab:  Solving for p, Initial residual = 8.70742e-05, Final residual = 9.88869e-06, No Iterations 5
DICPBiCGStab:  Solving for p, Initial residual = 1.12183e-05, Final residual = 9.30925e-06, No Iterations 1
DICPBiCGStab:  Solving for p, Initial residual = 9.3223e-06, Final residual = 9.3223e-06, No Iterations 0
time step continuity errors : sum local = 2.58961e-06, global = -8.33676e-08, cumulative = 0.000236977
smoothSolver:  Solving for nuTilda, Initial residual = 0.00106186, Final residual = 1.74754e-06, No Iterations 6
bounding nuTilda, min: -0.00017238 max: 0.0248208 average: 0.000497164
ExecutionTime = 85.04 s  ClockTime = 86 s

forceCoeffs forceCoeffs write:
    Cm    = -0.0115434
    Cd    = 0.0351489
    Cl    = 1.48564
    Cl(f) = 0.731278
    Cl(r) = 0.754364

Time = 2000

smoothSolver:  Solving for Ux, Initial residual = 1.14858e-05, Final residual = 4.04408e-06, No Iterations 2
smoothSolver:  Solving for Uy, Initial residual = 1.08861e-05, Final residual = 3.93025e-06, No Iterations 2
DICPBiCGStab:  Solving for p, Initial residual = 9.84873e-05, Final residual = 9.37661e-06, No Iterations 4
DICPBiCGStab:  Solving for p, Initial residual = 1.09009e-05, Final residual = 8.88601e-06, No Iterations 1
DICPBiCGStab:  Solving for p, Initial residual = 8.89097e-06, Final residual = 8.89097e-06, No Iterations 0
time step continuity errors : sum local = 2.46997e-06, global = 2.66902e-07, cumulative = 0.000237244
smoothSolver:  Solving for nuTilda, Initial residual = 0.00105148, Final residual = 1.7509e-06, No Iterations 6
bounding nuTilda, min: -0.000172413 max: 0.0248217 average: 0.000497207
ExecutionTime = 85.12 s  ClockTime = 86 s

forceCoeffs forceCoeffs write:
    Cm    = -0.0115451
    Cd    = 0.0351473
    Cl    = 1.48564
    Cl(f) = 0.731275
    Cl(r) = 0.754365

End

Finalising parallel run
/*---------------------------------------------------------------------------*\
  =========                 |
  \\      /  F ield         | OpenFOAM: The Open Source CFD Toolbox
   \\    /   O peration     | Website:  https://openfoam.org
    \\  /    A nd           | Version:  dev
     \\/     M anipulation  |
\*---------------------------------------------------------------------------*/
Build  : dev-7cd43ea5f827
Exec   : reconstructPar -constant
Date   : Dec 18 2019
Time   : 10:13:22
Host   : "chengpeng-zhao"
PID    : 1317
I/O    : uncollated
Case   : /opt/OpenFOAM/zcp-dev/run/airfoil_opt/cases/airfoil_run
nProcs : 1
sigFpe : Enabling floating point exception trapping (FOAM_SIGFPE).
fileModificationChecking : Monitoring run-time modified files using timeStampMaster (fileModificationSkew 10)
allowSystemOperations : Allowing user-supplied system call operations

// * * * * * * * * * * * * * * * * * * * * * * * * * * * * * * * * * * * * * //
Create time



Reconstructing fields for mesh region0

Time = constant

Reconstructing FV fields

No FV fields

Reconstructing point fields

No point fields

No lagrangian fields

Time = 200

Reconstructing FV fields

    Reconstructing volScalarFields

        p
        nut
        nuTilda
        yPlus

    Reconstructing volVectorFields

        U

    Reconstructing surfaceScalarFields

        phi

Reconstructing point fields

No point fields

No lagrangian fields

Time = 400

Reconstructing FV fields

    Reconstructing volScalarFields

        p
        nut
        nuTilda
        yPlus

    Reconstructing volVectorFields

        U

    Reconstructing surfaceScalarFields

        phi

Reconstructing point fields

No point fields

No lagrangian fields

Time = 600

Reconstructing FV fields

    Reconstructing volScalarFields

        p
        nut
        nuTilda
        yPlus

    Reconstructing volVectorFields

        U

    Reconstructing surfaceScalarFields

        phi

Reconstructing point fields

No point fields

No lagrangian fields

Time = 800

Reconstructing FV fields

    Reconstructing volScalarFields

        p
        nut
        nuTilda
        yPlus

    Reconstructing volVectorFields

        U

    Reconstructing surfaceScalarFields

        phi

Reconstructing point fields

No point fields

No lagrangian fields

Time = 1000

Reconstructing FV fields

    Reconstructing volScalarFields

        p
        nut
        nuTilda
        yPlus

    Reconstructing volVectorFields

        U

    Reconstructing surfaceScalarFields

        phi

Reconstructing point fields

No point fields

No lagrangian fields

Time = 1200

Reconstructing FV fields

    Reconstructing volScalarFields

        p
        nut
        nuTilda
        yPlus

    Reconstructing volVectorFields

        U

    Reconstructing surfaceScalarFields

        phi
                                                                                                                                                                                                                                                                                                                                                                                                                                                                                                                                                                                                                