/*---------------------------------------------------------------------------*\
  =========                 |
  \\      /  F ield         | OpenFOAM: The Open Source CFD Toolbox
   \\    /   O peration     | Website:  https://openfoam.org
    \\  /    A nd           | Version:  7
     \\/     M anipulation  |
\*---------------------------------------------------------------------------*/
Build  : 7-ca808c8420bf
Exec   : simpleFoam -parallel
Date   : Dec 19 2019
Time   : 17:30:25
Host   : "iZ6wej1artv0n1hqcx94jpZ"
PID    : 27460
I/O    : uncollated
Case   : /root/OpenFOAM/root-7/run/airfoil_opt/PARSEC_NACA0012/workdir.2/cases/airfoil_run
nProcs : 12
Slaves : 
11
(
"iZ6wej1artv0n1hqcx94jpZ.27461"
"iZ6wej1artv0n1hqcx94jpZ.27462"
"iZ6wej1artv0n1hqcx94jpZ.27463"
"iZ6wej1artv0n1hqcx94jpZ.27464"
"iZ6wej1artv0n1hqcx94jpZ.27465"
"iZ6wej1artv0n1hqcx94jpZ.27466"
"iZ6wej1artv0n1hqcx94jpZ.27467"
"iZ6wej1artv0n1hqcx94jpZ.27468"
"iZ6wej1artv0n1hqcx94jpZ.27469"
"iZ6wej1artv0n1hqcx94jpZ.27470"
"iZ6wej1artv0n1hqcx94jpZ.27471"
)

Pstream initialized with:
    floatTransfer      : 0
    nProcsSimpleSum    : 0
    commsType          : nonBlocking
    polling iterations : 0
sigFpe : Enabling floating point exception trapping (FOAM_SIGFPE).
fileModificationChecking : Monitoring run-time modified files using timeStampMaster (fileModificationSkew 10)
allowSystemOperations : Allowing user-supplied system call operations

// * * * * * * * * * * * * * * * * * * * * * * * * * * * * * * * * * * * * * //
Create time

Create mesh for time = 0


SIMPLE: Convergence criteria found
        p: tolerance 1e-06
        U: tolerance 1e-06
        nuTilda: tolerance 1e-06

Reading field p

Reading field U

Reading/calculating face flux field phi

Selecting incompressible transport model Newtonian
Selecting turbulence model type RAS
Selecting RAS turbulence model SpalartAllmaras
Selecting patchDistMethod meshWave
[iZ6wej1artv0n1hqcx94jpZ:27463] *** Process received signal ***
[iZ6wej1artv0n1hqcx94jpZ:27463] Signal: Floating point exception (8)
[iZ6wej1artv0n1hqcx94jpZ:27463] Signal code:  (-6)
[iZ6wej1artv0n1hqcx94jpZ:27463] Failing at address: 0x6b47
[iZ6wej1artv0n1hqcx94jpZ:27463] [ 0] /lib/x86_64-linux-gnu/libc.so.6(+0x3ef20)[0x7fc106022f20]
[iZ6wej1artv0n1hqcx94jpZ:27463] [ 1] /lib/x86_64-linux-gnu/libc.so.6(gsignal+0xc7)[0x7fc106022e97]
[iZ6wej1artv0n1hqcx94jpZ:27463] [ 2] /lib/x86_64-linux-gnu/libc.so.6(+0x3ef20)[0x7fc106022f20]
[iZ6wej1artv0n1hqcx94jpZ:27463] [ 3] /opt/openfoam7/platforms/linux64GccDPInt32Opt/lib/libOpenFOAM.so(_ZN4Foam6divideERNS_5FieldIdEERKdRKNS_5UListIdEE+0x144)[0x7fc10760a524]
[iZ6wej1artv0n1hqcx94jpZ:27463] [ 4] /opt/openfoam7/platforms/linux64GccDPInt32Opt/lib/libOpenFOAM.so(_ZN4FoamdvERKdRKNS_3tmpINS_5FieldIdEEEE+0x94)[0x7fc107616aa4]
[iZ6wej1artv0n1hqcx94jpZ:27463] [ 5] /opt/openfoam7/platforms/linux64GccDPInt32Opt/lib/libfiniteVolume.so(_ZNK4Foam20surfaceInterpolation15makeDeltaCoeffsEv+0x3ef)[0x7fc10981e4ff]
[iZ6wej1artv0n1hqcx94jpZ:27463] [ 6] /opt/openfoam7/platforms/linux64GccDPInt32Opt/lib/libfiniteVolume.so(_ZNK4Foam20surfaceInterpolation11deltaCoeffsEv+0x19)[0x7fc10981ebc9]
[iZ6wej1artv0n1hqcx94jpZ:27463] [ 7] /opt/openfoam7/platforms/linux64GccDPInt32Opt/lib/libincompressibleTurbulenceModels.so(_ZN4Foam8RASModelINS_29IncompressibleTurbulenceModelINS_14transportModelEEEEC1ERKNS_4wordERKNS_17geometricOneFieldESA_RKNS_14GeometricFieldINS_6VectorIdEENS_12fvPatchFieldENS_7volMeshEEERKNSB_IdNS_13fvsPatchFieldENS_11surfaceMeshEEESN_RKS2_S7_+0x341)[0x7fc10ae2d631]
[iZ6wej1artv0n1hqcx94jpZ:27463] [ 8] /opt/openfoam7/platforms/linux64GccDPInt32Opt/lib/libincompressibleTurbulenceModels.so(_ZN4Foam13eddyViscosityINS_8RASModelINS_29IncompressibleTurbulenceModelINS_14transportModelEEEEEEC1ERKNS_4wordERKNS_17geometricOneFieldESC_RKNS_14GeometricFieldINS_6VectorIdEENS_12fvPatchFieldENS_7volMeshEEERKNSD_IdNS_13fvsPatchFieldENS_11surfaceMeshEEESP_RKS3_S9_+0x3e)[0x7fc10ae2d80e]
[iZ6wej1artv0n1hqcx94jpZ:27463] [ 9] /opt/openfoam7/platforms/linux64GccDPInt32Opt/lib/libincompressibleTurbulenceModels.so(_ZN4Foam9RASModels15SpalartAllmarasINS_29IncompressibleTurbulenceModelINS_14transportModelEEEEC1ERKNS_17geometricOneFieldES8_RKNS_14GeometricFieldINS_6VectorIdEENS_12fvPatchFieldENS_7volMeshEEERKNS9_IdNS_13fvsPatchFieldENS_11surfaceMeshEEESL_RKS3_RKNS_4wordESQ_+0x54)[0x7fc10ae2daa4]
[iZ6wej1artv0n1hqcx94jpZ:27463] [10] /opt/openfoam7/platforms/linux64GccDPInt32Opt/lib/libincompressibleTurbulenceModels.so(_ZN4Foam8RASModelINS_29IncompressibleTurbulenceModelINS_14transportModelEEEE31adddictionaryConstructorToTableINS_9RASModels15SpalartAllmarasIS3_EEE3NewERKNS_17geometricOneFieldESC_RKNS_14GeometricFieldINS_6VectorIdEENS_12fvPatchFieldENS_7volMeshEEERKNSD_IdNS_13fvsPatchFieldENS_11surfaceMeshEEESP_RKS2_RKNS_4wordE+0x5b)[0x7fc10ae2e38b]
[iZ6wej1artv0n1hqcx94jpZ:27463] [11] /opt/openfoam7/platforms/linux64GccDPInt32Opt/lib/libincompressibleTurbulenceModels.so(_ZN4Foam8RASModelINS_29IncompressibleTurbulenceModelINS_14transportModelEEEE3NewERKNS_17geometricOneFieldES7_RKNS_14GeometricFieldINS_6VectorIdEENS_12fvPatchFieldENS_7volMeshEEERKNS8_IdNS_13fvsPatchFieldENS_11surfaceMeshEEESK_RKS2_RKNS_4wordE+0x395)[0x7fc10adb2c75]
[iZ6wej1artv0n1hqcx94jpZ:27463] [12] /opt/openfoam7/platforms/linux64GccDPInt32Opt/lib/libincompressibleTurbulenceModels.so(_ZN4Foam15TurbulenceModelINS_17geometricOneFieldES1_NS_29incompressibleTurbulenceModelENS_14transportModelEE31adddictionaryConstructorToTableINS_8RASModelINS_29IncompressibleTurbulenceModelIS3_EEEEE18NewTurbulenceModelERKS1_SC_RKNS_14GeometricFieldINS_6VectorIdEENS_12fvPatchFieldENS_7volMeshEEERKNSD_IdNS_13fvsPatchFieldENS_11surfaceMeshEEESP_RKS3_RKNS_4wordE+0x28)[0x7fc10adb2eb8]
[iZ6wej1artv0n1hqcx94jpZ:27463] [13] simpleFoam(+0x6fe35)[0x55f9f4369e35]
[iZ6wej1artv0n1hqcx94jpZ:27463] [14] simpleFoam(+0x25b25)[0x55f9f431fb25]
[iZ6wej1artv0n1hqcx94jpZ:27463] [15] /lib/x86_64-linux-gnu/libc.so.6(__libc_start_main+0xe7)[0x7fc106005b97]
[iZ6wej1artv0n1hqcx94jpZ:27463] [16] simpleFoam(+0x27f7a)[0x55f9f4321f7a]
[iZ6wej1artv0n1hqcx94jpZ:27463] *** End of error message ***
--------------------------------------------------------------------------
mpirun noticed that process rank 3 with PID 0 on node iZ6wej1artv0n1hqcx94jpZ exited on signal 8 (Floating point exception).
--------------------------------------------------------------------------
